
 ===================================================
  XFOIL Version 6.99
  Copyright (C) 2000   Mark Drela, Harold Youngren

  This software comes with ABSOLUTELY NO WARRANTY,
    subject to the GNU General Public License.

  Caveat computor
 ===================================================

 File  xfoil.def  not found

   QUIT    Exit program

  .OPER    Direct operating point(s)
  .MDES    Complex mapping design routine
  .QDES    Surface speed design routine
  .GDES    Geometry design routine

   SAVE f  Write airfoil to labeled coordinate file
   PSAV f  Write airfoil to plain coordinate file
   ISAV f  Write airfoil to ISES coordinate file
   MSAV f  Write airfoil to MSES coordinate file
   REVE    Reverse written-airfoil node ordering

   LOAD f  Read buffer airfoil from coordinate file
   NACA i  Set NACA 4,5-digit airfoil and buffer airfoil
   INTE    Set buffer airfoil by interpolating two airfoils
   NORM    Buffer airfoil normalization toggle
   XYCM rr Change CM reference location, currently  0.25000 0.00000

   BEND    Display structural properties of current airfoil

   PCOP    Set current-airfoil panel nodes directly from buffer airfoil points
   PANE    Set current-airfoil panel nodes ( 160 ) based on curvature
  .PPAR    Show/change paneling

  .PLOP    Plotting options

   WDEF f  Write  current-settings file
   RDEF f  Reread current-settings file
   NAME s  Specify new airfoil name
   NINC    Increment name version number

   Z       Zoom    | (available in all menus)
   U       Unzoom  | 

 XFOIL   c>  
 Labeled airfoil file.  Name:  naca pippo                                      

 Number of input coordinate points:  81
 Counterclockwise ordering
 Max thickness =     0.060071  at x =   0.307
 Max camber    =     0.039557  at x =   0.422

  LE  x,y  =  -0.00006   0.00068  |   Chord =   1.00007
  TE  x,y  =   1.00000   0.00000  |

 Current airfoil nodes set from buffer airfoil nodes (  81 )

 WARNING: Poor input coordinate distribution
          Excessive panel angle   49.1  at i =  41
          Repaneling with PANE and/or PPAR suggested
           (doing GDES,CADD before repaneling _may_
            improve excessively coarse LE spacing

 XFOIL   c>  
 Blunt trailing edge.  Gap =  0.00126

 Paneling parameters used...
   Number of panel nodes       160
   Panel bunching parameter    1.000
   TE/LE panel density ratio   0.150
   Refined-area/LE panel density ratio    0.200
   Top    side refined area x/c limits  1.000 1.000
   Bottom side refined area x/c limits  1.000 1.000

 XFOIL   c>   N    command not recognized.  Type a "?" for list

 XFOIL   c>   330  command not recognized.  Type a "?" for list

 XFOIL   c>  
 XFOIL   c>  
.OPERi   c>   Current iteration limit:          10

Enter new iteration limit   i>  
.OPERi   c>  
 XFOIL   c>  
 XFOIL   c>  
 XFOIL   c>  
.OPERi   c>  
.OPERi   c>  
.OPERi   c>  
 M  =    0.0000
 Re =     50000

.OPERv   c>  
 Polar  1 newly created for accumulation
 Airfoil archived with polar: naca pippo                                      

Enter  polar save filename  OR  <return> for no file   s>  
 Polar save file will NOT be written

Enter  polar dump filename  OR  <return> for no file   s>  
 Polar dump file will NOT be written

 Polar accumulation enabled

.OPERva   c>   Calculating unit vorticity distributions ...
 Calculating wake trajectory ...
 Calculating source influence matrix ...

 Solving BL system ...

 Initializing BL ...
    side            1  ...
 MRCHUE: Inverse mode at  10     Hk =   3.800
 MRCHUE: Convergence failed at  11  side 1    Res =  0.8371E+00
 MRCHUE: Inverse mode at  12     Hk =   4.542
 MRCHUE: Inverse mode at  13     Hk =   5.326
 MRCHUE: Inverse mode at  14     Hk =   6.146
 MRCHUE: Convergence failed at  15  side 1    Res =  0.1646E+02
 MRCHUE: Inverse mode at  16     Hk =   6.863
 MRCHUE: Inverse mode at  17     Hk =   7.504
 MRCHUE: Inverse mode at  18     Hk =   8.089
 MRCHUE: Inverse mode at  19     Hk =   8.630
 MRCHUE: Inverse mode at  20     Hk =   9.138
 MRCHUE: Inverse mode at  21     Hk =   9.620
 MRCHUE: Inverse mode at  22     Hk =  10.079
 MRCHUE: Inverse mode at  23     Hk =   9.058
 MRCHUE: Inverse mode at  24     Hk =   7.409
 MRCHUE: Inverse mode at  25     Hk =   6.284
 MRCHUE: Inverse mode at  26     Hk =   5.419
 MRCHUE: Inverse mode at  27     Hk =   4.713
 MRCHUE: Inverse mode at  28     Hk =   4.120
 MRCHUE: Inverse mode at  29     Hk =   3.608
 MRCHUE: Inverse mode at  30     Hk =   3.153
 MRCHUE: Inverse mode at  86     Hk =   2.500
 MRCHUE: Inverse mode at  87     Hk =   2.500
    side            2  ...
 MRCHUE: Inverse mode at  75     Hk =   2.500

 MRCHDU: Convergence failed at  15  side 1    Res =  0.2027E+01
 MRCHDU: Convergence failed at  16  side 1    Res =  0.3799E+01
 MRCHDU: Convergence failed at  17  side 1    Res =  0.8928E+01
 MRCHDU: Convergence failed at  18  side 1    Res =  0.1757E+03
 MRCHDU: Convergence failed at  19  side 1    Res =  0.1294E+02
 MRCHDU: Convergence failed at  20  side 1    Res =  0.7369E+01
 MRCHDU: Convergence failed at  21  side 1    Res =  0.5197E+01
 MRCHDU: Convergence failed at  22  side 1    Res =  0.4322E+01
 MRCHDU: Convergence failed at  23  side 1    Res =  0.8700E+01
 MRCHDU: Convergence failed at  24  side 1    Res =  0.2896E+02
 MRCHDU: Convergence failed at  25  side 1    Res =  0.1822E+02
 MRCHDU: Convergence failed at  26  side 1    Res =  0.1339E+02
 MRCHDU: Convergence failed at  27  side 1    Res =  0.8514E+01
 MRCHDU: Convergence failed at  28  side 1    Res =  0.1457E+02
 MRCHDU: Convergence failed at  29  side 1    Res =  0.2205E+03
 MRCHDU: Convergence failed at  30  side 1    Res =  0.4359E+03
 MRCHDU: Convergence failed at  31  side 1    Res =  0.1227E+02
 MRCHDU: Convergence failed at  32  side 1    Res =  0.7978E+01
 MRCHDU: Convergence failed at  33  side 1    Res =  0.1221E+02
 MRCHDU: Convergence failed at  34  side 1    Res =  0.1290E+02
 MRCHDU: Convergence failed at  35  side 1    Res =  0.9062E+01
 MRCHDU: Convergence failed at  36  side 1    Res =  0.1290E+02
 MRCHDU: Convergence failed at  37  side 1    Res =  0.1536E+02
 MRCHDU: Convergence failed at  38  side 1    Res =  0.1665E+02
 MRCHDU: Convergence failed at  39  side 1    Res =  0.1785E+02
 MRCHDU: Convergence failed at  40  side 1    Res =  0.1827E+02
 MRCHDU: Convergence failed at  41  side 1    Res =  0.1960E+02
 MRCHDU: Convergence failed at  42  side 1    Res =  0.2137E+02
 MRCHDU: Convergence failed at  43  side 1    Res =  0.2266E+02
 MRCHDU: Convergence failed at  44  side 1    Res =  0.2299E+02
 MRCHDU: Convergence failed at  45  side 1    Res =  0.2349E+02
 MRCHDU: Convergence failed at  46  side 1    Res =  0.2358E+02
 MRCHDU: Convergence failed at  47  side 1    Res =  0.2484E+02
 MRCHDU: Convergence failed at  48  side 1    Res =  0.2625E+02
 MRCHDU: Convergence failed at  49  side 1    Res =  0.2772E+02
 MRCHDU: Convergence failed at  50  side 1    Res =  0.2922E+02
 MRCHDU: Convergence failed at  51  side 1    Res =  0.3087E+02
 MRCHDU: Convergence failed at  52  side 1    Res =  0.3258E+02
 MRCHDU: Convergence failed at  53  side 1    Res =  0.3435E+02
 MRCHDU: Convergence failed at  54  side 1    Res =  0.3685E+02
 MRCHDU: Convergence failed at  55  side 1    Res =  0.3919E+02
 MRCHDU: Convergence failed at  56  side 1    Res =  0.4197E+02
 MRCHDU: Convergence failed at  57  side 1    Res =  0.4986E+02
 MRCHDU: Convergence failed at  58  side 1    Res =  0.8491E+02
 MRCHDU: Convergence failed at  59  side 1    Res =  0.9601E+02
 MRCHDU: Convergence failed at  60  side 1    Res =  0.1102E+03
 MRCHDU: Convergence failed at  61  side 1    Res =  0.1249E+03
 MRCHDU: Convergence failed at  62  side 1    Res =  0.1521E+03
 MRCHDU: Convergence failed at  63  side 1    Res =  0.1893E+03
 MRCHDU: Convergence failed at  64  side 1    Res =  0.2589E+03
 MRCHDU: Convergence failed at  65  side 1    Res =  0.3923E+03
 MRCHDU: Convergence failed at  66  side 1    Res =  0.8885E+03
 MRCHDU: Convergence failed at  67  side 1    Res =  0.4794E+04
 MRCHDU: Convergence failed at  68  side 1    Res =  0.4319E+02
 MRCHDU: Convergence failed at  69  side 1    Res =  0.2866E+02
 MRCHDU: Convergence failed at  70  side 1    Res =  0.1359E+04
 MRCHDU: Convergence failed at  71  side 1    Res =  0.4409E+03
 MRCHDU: Convergence failed at  72  side 1    Res =  0.2509E+03
 MRCHDU: Convergence failed at  73  side 1    Res =  0.1768E+03
 MRCHDU: Convergence failed at  74  side 1    Res =  0.1371E+03
 MRCHDU: Convergence failed at  75  side 1    Res =  0.4573E+02
 MRCHDU: Convergence failed at  76  side 1    Res =  0.4977E+02
 MRCHDU: Convergence failed at  77  side 1    Res =  0.5513E+02
 MRCHDU: Convergence failed at  78  side 1    Res =  0.6263E+02
 MRCHDU: Convergence failed at  79  side 1    Res =  0.7145E+02
 MRCHDU: Convergence failed at  80  side 1    Res =  0.8658E+02
 MRCHDU: Convergence failed at  81  side 1    Res =  0.1075E+03
 MRCHDU: Convergence failed at  82  side 1    Res =  0.1516E+03
 MRCHDU: Convergence failed at  83  side 1    Res =  0.2827E+03
 MRCHDU: Convergence failed at  84  side 1    Res =  0.6702E+02
 MRCHDU: Convergence failed at  85  side 1    Res =  0.4547E+02
 MRCHDU: Convergence failed at  86  side 1    Res =  0.3711E+02
 MRCHDU: Convergence failed at  87  side 1    Res =  0.3393E+02
 Side 1  free  transition at x/c =  0.1479   24
 Side 2 forced transition at x/c =  0.9999   75

   1   rms: 0.1143E+01   max: -.2438E+01   C at   75  2   RLX: 0.205
       a =  6.000      CL =  2.9704
      Cm = -0.6672     CD =  0.00624   =>   CDf =  0.00385    CDp =  0.00239

 Side 1 forced transition at x/c =  1.0001   87
 Side 2 forced transition at x/c =  0.9999   75
 idif Ue xi dudx           1  0.23457482      5.52058220E-03   42.490959    
 Uenew xinew           2  6.66595716E-03  1.56879425E-04

   2   rms: 0.8908E+00   max: -.1662E+01   C at   75  2   RLX: 0.262
       a =  6.000      CL =  2.3710
      Cm = -0.4917     CD =  0.00729   =>   CDf =  0.01538    CDp = -0.00810

 Side 1  free  transition at x/c =  0.8014   71
 Side 2 forced transition at x/c =  0.9999   76

   3   rms: 0.1218E+01   max: -.1001E+02   C at   71  1   RLX: 0.050
       a =  6.000      CL =  2.2819
      Cm = -0.4639     CD =  0.00880   =>   CDf =  0.01229    CDp = -0.00349

 Side 1  free  transition at x/c =  0.8848   77
 Side 2 forced transition at x/c =  0.9999   76

   4   rms: 0.7198E+00   max: -.1174E+01   C at   78  2   RLX: 0.279
       a =  6.000      CL =  1.9199
      Cm = -0.3452     CD =  0.00997   =>   CDf =  0.01153    CDp = -0.00157

 Side 1  free  transition at x/c =  0.1357   22
 Side 2 forced transition at x/c =  0.9999   76

   5   rms: 0.8435E+00   max: 0.1174E+02   C at   22  1   RLX: 0.128
       a =  6.000      CL =  1.8095
      Cm = -0.3092     CD =  0.01603   =>   CDf =  0.01674    CDp = -0.00072

 Side 1  free  transition at x/c =  0.1163   21
 Side 2 forced transition at x/c =  0.9999   76

   6   rms: 0.5585E+00   max: 0.3019E+01   T at   21  1   RLX: 0.497
       a =  6.000      CL =  1.5290
      Cm = -0.2173     CD =  0.02322   =>   CDf =  0.01647    CDp =  0.00674

 MRCHDU: Convergence failed at  21  side 1    Res =  0.1985E+02
 MRCHDU: Convergence failed at  22  side 1    Res =  0.1963E+02
 MRCHDU: Convergence failed at  23  side 1    Res =  0.1823E+02
 MRCHDU: Convergence failed at  24  side 1    Res =  0.2023E+02
 MRCHDU: Convergence failed at  25  side 1    Res =  0.2323E+02
 MRCHDU: Convergence failed at  26  side 1    Res =  0.2617E+02
 MRCHDU: Convergence failed at  27  side 1    Res =  0.2995E+02
 MRCHDU: Convergence failed at  28  side 1    Res =  0.3720E+02
 MRCHDU: Convergence failed at  29  side 1    Res =  0.4923E+02
 MRCHDU: Convergence failed at  30  side 1    Res =  0.8336E+02
 MRCHDU: Convergence failed at  31  side 1    Res =  0.3873E+03
 MRCHDU: Convergence failed at  32  side 1    Res =  0.1736E+03
 MRCHDU: Convergence failed at  33  side 1    Res =  0.7930E+02
 MRCHDU: Convergence failed at  34  side 1    Res =  0.5008E+02
 MRCHDU: Convergence failed at  35  side 1    Res =  0.4219E+02
 MRCHDU: Convergence failed at  36  side 1    Res =  0.3377E+02
 MRCHDU: Convergence failed at  37  side 1    Res =  0.2979E+02
 MRCHDU: Convergence failed at  38  side 1    Res =  0.2587E+02
 MRCHDU: Convergence failed at  39  side 1    Res =  0.3315E+02
 MRCHDU: Convergence failed at  40  side 1    Res =  0.2927E+02
 MRCHDU: Convergence failed at  41  side 1    Res =  0.2684E+02
 MRCHDU: Convergence failed at  42  side 1    Res =  0.2399E+02
 MRCHDU: Convergence failed at  43  side 1    Res =  0.2223E+02
 MRCHDU: Convergence failed at  44  side 1    Res =  0.2128E+02
 MRCHDU: Convergence failed at  45  side 1    Res =  0.1999E+02
 MRCHDU: Convergence failed at  46  side 1    Res =  0.1898E+02
 MRCHDU: Convergence failed at  47  side 1    Res =  0.1868E+02
 MRCHDU: Convergence failed at  48  side 1    Res =  0.1805E+02
 MRCHDU: Convergence failed at  49  side 1    Res =  0.1776E+02
 MRCHDU: Convergence failed at  50  side 1    Res =  0.1747E+02
 MRCHDU: Convergence failed at  51  side 1    Res =  0.1763E+02
 MRCHDU: Convergence failed at  52  side 1    Res =  0.1731E+02
 MRCHDU: Convergence failed at  53  side 1    Res =  0.1726E+02
 MRCHDU: Convergence failed at  54  side 1    Res =  0.1720E+02
 MRCHDU: Convergence failed at  55  side 1    Res =  0.1702E+02
 MRCHDU: Convergence failed at  56  side 1    Res =  0.1702E+02
 MRCHDU: Convergence failed at  57  side 1    Res =  0.1688E+02
 MRCHDU: Convergence failed at  58  side 1    Res =  0.1675E+02
 MRCHDU: Convergence failed at  59  side 1    Res =  0.1686E+02
 MRCHDU: Convergence failed at  60  side 1    Res =  0.1679E+02
 MRCHDU: Convergence failed at  61  side 1    Res =  0.1671E+02
 MRCHDU: Convergence failed at  62  side 1    Res =  0.1663E+02
 MRCHDU: Convergence failed at  63  side 1    Res =  0.1655E+02
 MRCHDU: Convergence failed at  64  side 1    Res =  0.1650E+02
 MRCHDU: Convergence failed at  65  side 1    Res =  0.1644E+02
 MRCHDU: Convergence failed at  66  side 1    Res =  0.1638E+02
 MRCHDU: Convergence failed at  67  side 1    Res =  0.1633E+02
 MRCHDU: Convergence failed at  68  side 1    Res =  0.1630E+02
 MRCHDU: Convergence failed at  69  side 1    Res =  0.1625E+02
 MRCHDU: Convergence failed at  70  side 1    Res =  0.1622E+02
 MRCHDU: Convergence failed at  71  side 1    Res =  0.1634E+02
 MRCHDU: Convergence failed at  72  side 1    Res =  0.1647E+02
 MRCHDU: Convergence failed at  73  side 1    Res =  0.1660E+02
 MRCHDU: Convergence failed at  74  side 1    Res =  0.1671E+02
 MRCHDU: Convergence failed at  75  side 1    Res =  0.1686E+02
 MRCHDU: Convergence failed at  76  side 1    Res =  0.1702E+02
 MRCHDU: Convergence failed at  77  side 1    Res =  0.2235E+02
 MRCHDU: Convergence failed at  78  side 1    Res =  0.2209E+02
 MRCHDU: Convergence failed at  79  side 1    Res =  0.2361E+02
 MRCHDU: Convergence failed at  80  side 1    Res =  0.2531E+02
 MRCHDU: Convergence failed at  81  side 1    Res =  0.2161E+02
 MRCHDU: Convergence failed at  82  side 1    Res =  0.2128E+02
 MRCHDU: Convergence failed at  83  side 1    Res =  0.2057E+02
 MRCHDU: Convergence failed at  84  side 1    Res =  0.2000E+02
 MRCHDU: Convergence failed at  85  side 1    Res =  0.1862E+02
 MRCHDU: Convergence failed at  86  side 1    Res =  0.2677E+02
 Side 1  free  transition at x/c =  0.0934   19
 Side 2 forced transition at x/c =  0.9999   76

   7   rms: 0.9578E+00   max: 0.5822E+01   D at   78  2   RLX: 0.091
       a =  6.000      CL =  2.1286
      Cm = -0.4681     CD =  0.01064   =>   CDf =  0.00456    CDp =  0.00608

 Side 1  free  transition at x/c =  0.0965   19
 Side 2 forced transition at x/c =  0.9999   76

   8   rms: 0.6689E+00   max: -.3805E+01   C at   76  2   RLX: 0.131
       a =  6.000      CL =  1.6097
      Cm = -0.3090     CD =  0.04018   =>   CDf =  0.00543    CDp =  0.03475

 Side 1  free  transition at x/c =  0.1084   20
 Side 2 forced transition at x/c =  0.9999   76

   9   rms: 0.5305E+00   max: -.3336E+01   T at   20  1   RLX: 0.150
       a =  6.000      CL =  1.4605
      Cm = -0.2623     CD =  0.04347   =>   CDf =  0.00584    CDp =  0.03763

 Side 1  free  transition at x/c =  0.1221   21
 Side 2 forced transition at x/c =  0.9999   76

  10   rms: 0.8256E+00   max: -.6161E+01   T at   21  1   RLX: 0.081
       a =  6.000      CL =  1.3678
      Cm = -0.2433     CD =  0.04702   =>   CDf =  0.00620    CDp =  0.04081

 MRCHDU: Convergence failed at  42  side 1    Res =  0.1295E+00
 MRCHDU: Convergence failed at  43  side 1    Res =  0.1130E+01
 MRCHDU: Convergence failed at  44  side 1    Res =  0.4949E+00
 MRCHDU: Convergence failed at  45  side 1    Res =  0.4518E+00
 MRCHDU: Convergence failed at  46  side 1    Res =  0.3953E+00
 MRCHDU: Convergence failed at  47  side 1    Res =  0.3655E+00
 MRCHDU: Convergence failed at  48  side 1    Res =  0.3340E+00
 MRCHDU: Convergence failed at  49  side 1    Res =  0.3011E+00
 MRCHDU: Convergence failed at  50  side 1    Res =  0.2667E+00
 MRCHDU: Convergence failed at  51  side 1    Res =  0.2301E+00
 MRCHDU: Convergence failed at  52  side 1    Res =  0.1907E+00
 MRCHDU: Convergence failed at  53  side 1    Res =  0.1483E+00
 MRCHDU: Convergence failed at  54  side 1    Res =  0.1004E+00
 MRCHDU: Convergence failed at  55  side 1    Res =  0.4417E-01
 Side 1  free  transition at x/c =  0.1487   23
 Side 2 forced transition at x/c =  0.9999   76

  11   rms: 0.7087E+00   max: -.6739E+01   T at   23  1   RLX: 0.074
       a =  6.000      CL =  1.1525
      Cm = -0.1675     CD =  0.04079   =>   CDf =  0.00627    CDp =  0.03451

 MRCHDU: Convergence failed at  55  side 1    Res =  0.4644E+00
 MRCHDU: Convergence failed at  56  side 1    Res =  0.8907E+00
 MRCHDU: Convergence failed at  57  side 1    Res =  0.2369E+00
 MRCHDU: Convergence failed at  58  side 1    Res =  0.2175E+00
 MRCHDU: Convergence failed at  59  side 1    Res =  0.1851E+00
 MRCHDU: Convergence failed at  60  side 1    Res =  0.1502E+00
 MRCHDU: Convergence failed at  61  side 1    Res =  0.1175E+00
 MRCHDU: Convergence failed at  62  side 1    Res =  0.7943E-01
 Side 1  free  transition at x/c =  0.1894   26
 Side 2 forced transition at x/c =  0.9999   76

  12   rms: 0.9358E+00   max: -.9272E+01   T at   26  1   RLX: 0.054
       a =  6.000      CL =  1.0357
      Cm = -0.1153     CD =  0.04037   =>   CDf =  0.00625    CDp =  0.03412

 MRCHDU: Convergence failed at  62  side 1    Res =  0.2644E+00
 MRCHDU: Convergence failed at  63  side 1    Res =  0.5270E+00
 Side 1  free  transition at x/c =  0.2323   29
 Side 2 forced transition at x/c =  0.9999   76

  13   rms: 0.4627E+00   max: -.3434E+01   C at   29  1   RLX: 0.146
       a =  6.000      CL =  0.9859
      Cm = -0.0848     CD =  0.04121   =>   CDf =  0.00616    CDp =  0.03505

 Side 1  free  transition at x/c =  0.2029   27
 Side 2 forced transition at x/c =  0.9999   76

  14   rms: 0.1024E+01   max: 0.1071E+02   T at   27  1   RLX: 0.070
       a =  6.000      CL =  0.9585
      Cm = -0.0767     CD =  0.04490   =>   CDf =  0.00617    CDp =  0.03873

 Side 1  free  transition at x/c =  0.1631   24
 Side 2 forced transition at x/c =  0.9999   76

  15   rms: 0.9614E+00   max: 0.8998E+01   T at   24  1   RLX: 0.094
       a =  6.000      CL =  0.9562
      Cm = -0.0780     CD =  0.05254   =>   CDf =  0.00623    CDp =  0.04631

 Side 1  free  transition at x/c =  0.1352   22
 Side 2 forced transition at x/c =  0.9999   76

  16   rms: 0.1523E+01   max: -.8167E+01   D at   65  1   RLX: 0.061
       a =  6.000      CL =  0.9032
      Cm = -0.0650     CD =  0.04778   =>   CDf =  0.00601    CDp =  0.04177

 MRCHDU: Convergence failed at  64  side 1    Res =  0.3112E-01
 Side 1  free  transition at x/c =  0.1496   23
 Side 2 forced transition at x/c =  0.9999   76

  17   rms: 0.7493E+00   max: 0.4959E+01   D at   64  1   RLX: 0.151
       a =  6.000      CL =  0.9228
      Cm = -0.0674     CD =  0.05288   =>   CDf =  0.00635    CDp =  0.04653

 Side 1  free  transition at x/c =  0.1330   22
 Side 2 forced transition at x/c =  0.9999   76

  18   rms: 0.1538E+01   max: -.9007E+01   D at   64  1   RLX: 0.056
       a =  6.000      CL =  0.8535
      Cm = -0.0484     CD =  0.04736   =>   CDf =  0.00604    CDp =  0.04133

 MRCHDU: Convergence failed at  64  side 1    Res =  0.3356E-01
 Side 1  free  transition at x/c =  0.1398   23
 Side 2 forced transition at x/c =  0.9999   76

  19   rms: 0.3715E+00   max: -.2224E+01   T at   23  1   RLX: 0.225
       a =  6.000      CL =  0.8569
      Cm = -0.0483     CD =  0.04601   =>   CDf =  0.00631    CDp =  0.03970

 Side 1  free  transition at x/c =  0.1573   24
 Side 2 forced transition at x/c =  0.9999   76

  20   rms: 0.3560E+00   max: -.2244E+01   T at   24  1   RLX: 0.223
       a =  6.000      CL =  0.8494
      Cm = -0.0462     CD =  0.04882   =>   CDf =  0.00624    CDp =  0.04258

 Side 1  free  transition at x/c =  0.1734   25
 Side 2 forced transition at x/c =  0.9999   76

  21   rms: 0.5749E+00   max: 0.4854E+01   T at   25  1   RLX: 0.120
       a =  6.000      CL =  0.8520
      Cm = -0.0501     CD =  0.05476   =>   CDf =  0.00627    CDp =  0.04849

 Side 1  free  transition at x/c =  0.1561   24
 Side 2 forced transition at x/c =  0.9999   76

  22   rms: 0.6340E+00   max: -.3029E+01   T at   24  1   RLX: 0.165
       a =  6.000      CL =  0.8352
      Cm = -0.0431     CD =  0.05066   =>   CDf =  0.00612    CDp =  0.04454

 Side 1  free  transition at x/c =  0.1739   25
 Side 2 forced transition at x/c =  0.9999   76

  23   rms: 0.6631E+00   max: 0.6397E+01   T at   25  1   RLX: 0.095
       a =  6.000      CL =  0.8490
      Cm = -0.0454     CD =  0.05069   =>   CDf =  0.00639    CDp =  0.04430

 Side 1  free  transition at x/c =  0.1532   24
 Side 2 forced transition at x/c =  0.9999   76

  24   rms: 0.4972E+00   max: -.2239E+01   T at   24  1   RLX: 0.223
       a =  6.000      CL =  0.8471
      Cm = -0.0436     CD =  0.04798   =>   CDf =  0.00624    CDp =  0.04173

 Side 1  free  transition at x/c =  0.1672   25
 Side 2 forced transition at x/c =  0.9999   76

  25   rms: 0.5366E+00   max: -.2016E+01   T at   25  1   RLX: 0.248
       a =  6.000      CL =  0.8550
      Cm = -0.0430     CD =  0.04579   =>   CDf =  0.00655    CDp =  0.03924

 Side 1  free  transition at x/c =  0.1766   25
 Side 2 forced transition at x/c =  0.9999   76

  26   rms: 0.1130E+01   max: 0.1339E+02   T at   25  1   RLX: 0.054
       a =  6.000      CL =  0.8702
      Cm = -0.0466     CD =  0.05529   =>   CDf =  0.00683    CDp =  0.04846

 Side 1  free  transition at x/c =  0.1607   24
 Side 2 forced transition at x/c =  0.9999   76

  27   rms: 0.8396E+00   max: -.3323E+01   D at   64  1   RLX: 0.150
       a =  6.000      CL =  0.8675
      Cm = -0.0424     CD =  0.04889   =>   CDf =  0.00655    CDp =  0.04234

 Side 1  free  transition at x/c =  0.1705   25
 Side 2 forced transition at x/c =  0.9999   76

  28   rms: 0.8101E+00   max: -.7172E+01   C at   25  1   RLX: 0.070
       a =  6.000      CL =  0.8910
      Cm = -0.0431     CD =  0.04338   =>   CDf =  0.00724    CDp =  0.03615

 Side 1  free  transition at x/c =  0.1450   23
 Side 2 forced transition at x/c =  0.9999   76

  29   rms: 0.6275E+00   max: -.2118E+01   D at   47  1   RLX: 0.236
       a =  6.000      CL =  0.8874
      Cm = -0.0452     CD =  0.03876   =>   CDf =  0.00704    CDp =  0.03171

 Side 1  free  transition at x/c =  0.1538   24
 Side 2 forced transition at x/c =  0.9999   76

  30   rms: 0.5995E+00   max: -.2145E+01   D at   41  1   RLX: 0.233
       a =  6.000      CL =  0.9087
      Cm = -0.0481     CD =  0.03253   =>   CDf =  0.00792    CDp =  0.02460

 Side 1  free  transition at x/c =  0.1563   24
 Side 2 forced transition at x/c =  0.9999   76

  31   rms: 0.4361E+00   max: -.1800E+01   D at   37  1   RLX: 0.278
       a =  6.000      CL =  0.9301
      Cm = -0.0531     CD =  0.02856   =>   CDf =  0.00883    CDp =  0.01973

 Side 1  free  transition at x/c =  0.1644   24
 Side 2 forced transition at x/c =  0.9999   76

  32   rms: 0.2940E+00   max: 0.1884E+01   T at   24  1   RLX: 0.339
       a =  6.000      CL =  0.9912
      Cm = -0.0639     CD =  0.02788   =>   CDf =  0.00965    CDp =  0.01823

 Side 1  free  transition at x/c =  0.1220   21
 Side 2 forced transition at x/c =  0.9999   76

  33   rms: 0.1766E+00   max: -.7310E+00   T at   21  1   RLX: 0.684
       a =  6.000      CL =  0.9714
      Cm = -0.0706     CD =  0.02946   =>   CDf =  0.01118    CDp =  0.01827

 Side 1  free  transition at x/c =  0.1478   23
 Side 2 forced transition at x/c =  0.9999   76

  34   rms: 0.4539E-01   max: -.3756E+00   C at   23  1
       a =  6.000      CL =  0.9893
      Cm = -0.0764     CD =  0.02694   =>   CDf =  0.01127    CDp =  0.01568

 Side 1  free  transition at x/c =  0.1605   24
 Side 2 forced transition at x/c =  0.9999   76

  35   rms: 0.1790E-01   max: -.1668E+00   C at   24  1
       a =  6.000      CL =  0.9889
      Cm = -0.0766     CD =  0.02711   =>   CDf =  0.01124    CDp =  0.01587

 Side 1  free  transition at x/c =  0.1654   24
 Side 2 forced transition at x/c =  0.9999   76

  36   rms: 0.3972E-02   max: -.3643E-01   C at   24  1
       a =  6.000      CL =  0.9889
      Cm = -0.0766     CD =  0.02718   =>   CDf =  0.01116    CDp =  0.01602

 Side 1  free  transition at x/c =  0.1655   24
 Side 2 forced transition at x/c =  0.9999   76

  37   rms: 0.1214E-01   max: -.1303E+00   C at   24  1
       a =  6.000      CL =  0.9886
      Cm = -0.0766     CD =  0.02716   =>   CDf =  0.01126    CDp =  0.01591

 Side 1  free  transition at x/c =  0.1664   25
 Side 2 forced transition at x/c =  0.9999   76

  38   rms: 0.9171E-02   max: -.9782E-01   D at   24  1
       a =  6.000      CL =  0.9888
      Cm = -0.0766     CD =  0.02715   =>   CDf =  0.01122    CDp =  0.01594

 Side 1  free  transition at x/c =  0.1663   25
 Side 2 forced transition at x/c =  0.9999   76

  39   rms: 0.1456E-02   max: 0.1592E-01   C at   25  1
       a =  6.000      CL =  0.9889
      Cm = -0.0766     CD =  0.02719   =>   CDf =  0.01111    CDp =  0.01607

 Side 1  free  transition at x/c =  0.1659   24
 Side 2 forced transition at x/c =  0.9999   76

  40   rms: 0.6349E-04   max: 0.9673E-03   D at   25  1
       a =  6.000      CL =  0.9889
      Cm = -0.0766     CD =  0.02718   =>   CDf =  0.01114    CDp =  0.01604
 plradd ia,ip,cpol            1          85  3.24961351E-04

 Point added to stored polar  1
 Save file unspecified or not available
 Dump file unspecified or not available

.OPERva   c>  
.OPERva   c>  
.OPERva   c>   Calculating wake trajectory ...
 Calculating source influence matrix ...

 Solving BL system ...

 Side 1  free  transition at x/c =  0.1659   24
 Side 2 forced transition at x/c =  0.9999   76

   1   rms: 0.4180E+00   max: -.3058E+01   T at   24  1   RLX: 0.164
       a =  5.000      CL =  0.9804
      Cm = -0.0785     CD =  0.02504   =>   CDf =  0.01113    CDp =  0.01391

 Side 1  free  transition at x/c =  0.3461   38
 Side 2 forced transition at x/c =  0.9999   76

   2   rms: 0.1053E+01   max: -.1467E+02   C at   38  1   RLX: 0.034
       a =  5.000      CL =  1.0080
      Cm = -0.0807     CD =  0.02339   =>   CDf =  0.00976    CDp =  0.01362

 Side 1  free  transition at x/c =  0.3536   38
 Side 2 forced transition at x/c =  0.9999   76

   3   rms: 0.5939E+00   max: -.4221E+01   T at   38  1   RLX: 0.118
       a =  5.000      CL =  1.0002
      Cm = -0.0814     CD =  0.02263   =>   CDf =  0.00993    CDp =  0.01271

 MRCHDU: Convergence failed at  49  side 1    Res =  0.1760E+01
 MRCHDU: Convergence failed at  50  side 1    Res =  0.2002E+01
 MRCHDU: Convergence failed at  51  side 1    Res =  0.2276E+01
 MRCHDU: Convergence failed at  52  side 1    Res =  0.2542E+01
 MRCHDU: Convergence failed at  53  side 1    Res =  0.2792E+01
 MRCHDU: Convergence failed at  54  side 1    Res =  0.3028E+01
 MRCHDU: Convergence failed at  55  side 1    Res =  0.3241E+01
 MRCHDU: Convergence failed at  56  side 1    Res =  0.3433E+01
 MRCHDU: Convergence failed at  57  side 1    Res =  0.3598E+01
 MRCHDU: Convergence failed at  58  side 1    Res =  0.3739E+01
 MRCHDU: Convergence failed at  59  side 1    Res =  0.3855E+01
 MRCHDU: Convergence failed at  60  side 1    Res =  0.3949E+01
 MRCHDU: Convergence failed at  61  side 1    Res =  0.4017E+01
 MRCHDU: Convergence failed at  62  side 1    Res =  0.4068E+01
 MRCHDU: Convergence failed at  63  side 1    Res =  0.4075E+01
 MRCHDU: Convergence failed at  64  side 1    Res =  0.4083E+01
 MRCHDU: Convergence failed at  65  side 1    Res =  0.4073E+01
 MRCHDU: Convergence failed at  66  side 1    Res =  0.4049E+01
 MRCHDU: Convergence failed at  67  side 1    Res =  0.4736E+01
 MRCHDU: Convergence failed at  68  side 1    Res =  0.5191E+01
 MRCHDU: Convergence failed at  69  side 1    Res =  0.5789E+01
 MRCHDU: Convergence failed at  70  side 1    Res =  0.6582E+01
 MRCHDU: Convergence failed at  71  side 1    Res =  0.7530E+01
 MRCHDU: Convergence failed at  72  side 1    Res =  0.8413E+01
 MRCHDU: Convergence failed at  73  side 1    Res =  0.1012E+02
 MRCHDU: Convergence failed at  74  side 1    Res =  0.1144E+02
 MRCHDU: Convergence failed at  75  side 1    Res =  0.1431E+02
 MRCHDU: Convergence failed at  76  side 1    Res =  0.1923E+02
 MRCHDU: Convergence failed at  77  side 1    Res =  0.3038E+02
 MRCHDU: Convergence failed at  78  side 1    Res =  0.5676E+02
 MRCHDU: Convergence failed at  79  side 1    Res =  0.8230E+03
 MRCHDU: Convergence failed at  80  side 1    Res =  0.5703E+02
 MRCHDU: Convergence failed at  81  side 1    Res =  0.2915E+02
 MRCHDU: Convergence failed at  82  side 1    Res =  0.1914E+02
 MRCHDU: Convergence failed at  83  side 1    Res =  0.1426E+02
 MRCHDU: Convergence failed at  84  side 1    Res =  0.1121E+02
 MRCHDU: Convergence failed at  85  side 1    Res =  0.9015E+01
 MRCHDU: Convergence failed at  86  side 1    Res =  0.9399E+01
 Side 1  free  transition at x/c =  0.4908   48
 Side 2 forced transition at x/c =  0.9999   76

   4   rms: 0.8381E+00   max: 0.5922E+01   C at   48  1   RLX: 0.101
       a =  5.000      CL =  1.2171
      Cm = -0.2057     CD =  0.01115   =>   CDf =  0.00691    CDp =  0.00423

 Side 1  free  transition at x/c =  0.5995   56
 Side 2 forced transition at x/c =  0.9999   76

   5   rms: 0.3344E+00   max: -.2509E+01   T at   56  1   RLX: 0.199
       a =  5.000      CL =  1.1621
      Cm = -0.1754     CD =  0.01274   =>   CDf =  0.01143    CDp =  0.00131

 Side 1  free  transition at x/c =  0.6984   64
 Side 2 forced transition at x/c =  0.9999   76

   6   rms: 0.3721E+00   max: -.3526E+01   C at   64  1   RLX: 0.142
       a =  5.000      CL =  1.1523
      Cm = -0.1696     CD =  0.01229   =>   CDf =  0.01002    CDp =  0.00227

 Side 1  free  transition at x/c =  0.7105   64
 Side 2 forced transition at x/c =  0.9999   76

   7   rms: 0.2090E+00   max: 0.3989E+00   C at   77  2   RLX: 0.605
       a =  5.000      CL =  1.0753
      Cm = -0.1306     CD =  0.01506   =>   CDf =  0.00971    CDp =  0.00536

 MRCHDU: Convergence failed at  69  side 1    Res =  0.1343E+03
 MRCHDU: Convergence failed at  70  side 1    Res =  0.2928E+01
 MRCHDU: Convergence failed at  71  side 1    Res =  0.2133E+01
 MRCHDU: Convergence failed at  72  side 1    Res =  0.3944E+01
 MRCHDU: Convergence failed at  73  side 1    Res =  0.5238E+01
 MRCHDU: Convergence failed at  74  side 1    Res =  0.6743E+01
 MRCHDU: Convergence failed at  75  side 1    Res =  0.8525E+01
 MRCHDU: Convergence failed at  76  side 1    Res =  0.1036E+02
 MRCHDU: Convergence failed at  77  side 1    Res =  0.1205E+02
 MRCHDU: Convergence failed at  78  side 1    Res =  0.1332E+02
 MRCHDU: Convergence failed at  79  side 1    Res =  0.1387E+02
 MRCHDU: Convergence failed at  80  side 1    Res =  0.1377E+02
 MRCHDU: Convergence failed at  81  side 1    Res =  0.1300E+02
 MRCHDU: Convergence failed at  82  side 1    Res =  0.1186E+02
 MRCHDU: Convergence failed at  83  side 1    Res =  0.1190E+02
 MRCHDU: Convergence failed at  84  side 1    Res =  0.1007E+02
 MRCHDU: Convergence failed at  85  side 1    Res =  0.8624E+01
 MRCHDU: Convergence failed at  86  side 1    Res =  0.7502E+01
 Side 1  free  transition at x/c =  0.8082   72
 Side 2 forced transition at x/c =  0.9999   76

   8   rms: 0.4684E+00   max: 0.2081E+01   C at   72  1   RLX: 0.721
       a =  5.000      CL =  1.0348
      Cm = -0.1370     CD =  0.01638   =>   CDf =  0.00753    CDp =  0.00886

 Side 1  free  transition at x/c =  0.8263   73
 Side 2 forced transition at x/c =  0.9999   76
 idif Ue xi dudx           1  0.31154802      4.40227985E-03   70.769699    
 Uenew xinew           2  4.96313721E-02  7.01308250E-04

   9   rms: 0.4254E+00   max: 0.1953E+01   D at   73  1   RLX: 0.607
       a =  5.000      CL =  0.9422
      Cm = -0.1338     CD =  0.03381   =>   CDf =  0.00862    CDp =  0.02519

 Side 1  free  transition at x/c =  0.7789   68
 Side 2 forced transition at x/c =  0.9999   77

  10   rms: 0.7126E-01   max: -.4650E+00   D at    2  2
       a =  5.000      CL =  0.8702
      Cm = -0.1104     CD =  0.03902   =>   CDf =  0.00858    CDp =  0.03044

 Side 1  free  transition at x/c =  0.7805   69
 Side 2 forced transition at x/c =  0.9999   77

  11   rms: 0.2064E-01   max: -.5996E-01   D at   88  2
       a =  5.000      CL =  0.8839
      Cm = -0.1115     CD =  0.03692   =>   CDf =  0.00886    CDp =  0.02806

 Side 1  free  transition at x/c =  0.7832   69
 Side 2 forced transition at x/c =  0.9999   77

  12   rms: 0.4836E-02   max: -.1736E-01   D at   83  1
       a =  5.000      CL =  0.8869
      Cm = -0.1118     CD =  0.03690   =>   CDf =  0.00878    CDp =  0.02812

 Side 1  free  transition at x/c =  0.7836   69
 Side 2 forced transition at x/c =  0.9999   77

  13   rms: 0.2733E-03   max: -.9161E-03   D at   78  2
       a =  5.000      CL =  0.8872
      Cm = -0.1119     CD =  0.03691   =>   CDf =  0.00875    CDp =  0.02816

 Side 1  free  transition at x/c =  0.7836   69
 Side 2 forced transition at x/c =  0.9999   77

  14   rms: 0.1000E-04   max: 0.4481E-04   C at   77  2
       a =  5.000      CL =  0.8872
      Cm = -0.1119     CD =  0.03691   =>   CDf =  0.00875    CDp =  0.02816
 plradd ia,ip,cpol            2          84  1.25557871E-03

 Point added to stored polar  1
 Save file unspecified or not available
 Dump file unspecified or not available

.OPERva   c>  
.OPERva   c>  
.OPERva   c>   Calculating wake trajectory ...
 Calculating source influence matrix ...

 Solving BL system ...

 Side 1  free  transition at x/c =  0.7836   69
 Side 2 forced transition at x/c =  0.9999   77

   1   rms: 0.2761E+00   max: -.4158E+00   C at   77  2   RLX: 0.407
       a =  4.000      CL =  0.7998
      Cm = -0.1080     CD =  0.03775   =>   CDf =  0.00873    CDp =  0.02902

 Side 1  free  transition at x/c =  0.8051   70
 Side 2 forced transition at x/c =  0.9999   77

   2   rms: 0.2993E+00   max: -.1854E+01   T at   70  1   RLX: 0.270
       a =  4.000      CL =  0.8605
      Cm = -0.1152     CD =  0.03734   =>   CDf =  0.00951    CDp =  0.02783

 Side 1  free  transition at x/c =  0.8306   72
 Side 2 forced transition at x/c =  0.9999   77
 idif Ue xi dudx           1  0.36749431      3.12781334E-03   117.49241    
 Uenew xinew           2  5.65429740E-02  4.81247902E-04

   3   rms: 0.1444E+00   max: 0.3877E+00   D at   80  2
       a =  4.000      CL =  0.7587
      Cm = -0.1097     CD =  0.03518   =>   CDf =  0.00996    CDp =  0.02522

 Side 1  free  transition at x/c =  0.8462   72
 Side 2 forced transition at x/c =  0.9999   78

   4   rms: 0.1867E-01   max: 0.1270E+00   D at    3  2
       a =  4.000      CL =  0.7716
      Cm = -0.1103     CD =  0.03378   =>   CDf =  0.01004    CDp =  0.02374

 Side 1  free  transition at x/c =  0.8496   73
 Side 2 forced transition at x/c =  0.9999   78

   5   rms: 0.1343E-01   max: 0.5243E-01   D at   81  1
       a =  4.000      CL =  0.7651
      Cm = -0.1095     CD =  0.03403   =>   CDf =  0.00998    CDp =  0.02405

 Side 1  free  transition at x/c =  0.8483   73
 Side 2 forced transition at x/c =  0.9999   78

   6   rms: 0.3539E-03   max: 0.2969E-02   C at   78  2
       a =  4.000      CL =  0.7651
      Cm = -0.1095     CD =  0.03398   =>   CDf =  0.01001    CDp =  0.02397

 Side 1  free  transition at x/c =  0.8483   73
 Side 2 forced transition at x/c =  0.9999   78

   7   rms: 0.1537E-05   max: 0.2000E-04   C at   78  2
       a =  4.000      CL =  0.7651
      Cm = -0.1095     CD =  0.03398   =>   CDf =  0.01001    CDp =  0.02397
 plradd ia,ip,cpol            3          83  2.88215722E-03

 Point added to stored polar  1
 Save file unspecified or not available
 Dump file unspecified or not available

.OPERva   c>  
.OPERva   c>  
.OPERva   c>   Calculating wake trajectory ...
 Calculating source influence matrix ...

 Solving BL system ...

 Side 1  free  transition at x/c =  0.8483   73
 Side 2 forced transition at x/c =  0.9999   78

   1   rms: 0.2957E+00   max: -.4621E+00   T at   81  2   RLX: 0.484
       a =  3.000      CL =  0.6456
      Cm = -0.0994     CD =  0.03386   =>   CDf =  0.00998    CDp =  0.02387

 Side 1  free  transition at x/c =  0.8687   74
 Side 2 forced transition at x/c =  0.9999   78

   2   rms: 0.1245E+00   max: -.1072E+01   T at   74  1   RLX: 0.466
       a =  3.000      CL =  0.6682
      Cm = -0.1043     CD =  0.03515   =>   CDf =  0.01057    CDp =  0.02458

 Side 1  free  transition at x/c =  0.8953   76
 Side 2 forced transition at x/c =  0.9999   78
 idif Ue xi dudx           1  0.41280454      2.37441063E-03   173.85558    
 Uenew xinew           2  6.53672814E-02  3.75986099E-04

   3   rms: 0.6637E-01   max: 0.1526E+00   D at   84  2
       a =  3.000      CL =  0.6160
      Cm = -0.1003     CD =  0.03102   =>   CDf =  0.01112    CDp =  0.01990

 Side 1  free  transition at x/c =  0.9085   76
 Side 2 forced transition at x/c =  0.9999   79

   4   rms: 0.1242E-01   max: 0.1381E+00   D at    3  2
       a =  3.000      CL =  0.6197
      Cm = -0.1007     CD =  0.03083   =>   CDf =  0.01080    CDp =  0.02002

 Side 1  free  transition at x/c =  0.9091   76
 Side 2 forced transition at x/c =  0.9999   79

   5   rms: 0.1869E-02   max: 0.1853E-01   D at    4  2
       a =  3.000      CL =  0.6199
      Cm = -0.1008     CD =  0.03084   =>   CDf =  0.01079    CDp =  0.02004

 Side 1  free  transition at x/c =  0.9092   76
 Side 2 forced transition at x/c =  0.9999   79

   6   rms: 0.1066E-04   max: 0.1513E-03   D at    7  2
       a =  3.000      CL =  0.6199
      Cm = -0.1008     CD =  0.03084   =>   CDf =  0.01079    CDp =  0.02004
 plradd ia,ip,cpol            4          82  0.15271640    

 Point added to stored polar  1
 Save file unspecified or not available
 Dump file unspecified or not available

.OPERva   c>  
.OPERva   c>  
.OPERva   c>   Calculating wake trajectory ...
 Calculating source influence matrix ...

 Solving BL system ...

 Side 1  free  transition at x/c =  0.9092   76
 Side 2 forced transition at x/c =  0.9999   79

   1   rms: 0.1979E+00   max: -.2548E+00   T at   80  2   RLX: 0.366
       a =  2.000      CL =  0.5725
      Cm = -0.0980     CD =  0.02945   =>   CDf =  0.01077    CDp =  0.01868

 Side 1  free  transition at x/c =  0.9357   78
 Side 2 forced transition at x/c =  0.9999   79
 idif Ue xi dudx           1  0.44473666      1.82926655E-03   243.12294    
 Uenew xinew           2  6.34137392E-02  2.60829926E-04

   2   rms: 0.1535E+00   max: -.2230E+00   T at   80  2   RLX: 0.725
       a =  2.000      CL =  0.4814
      Cm = -0.0886     CD =  0.02756   =>   CDf =  0.01133    CDp =  0.01623

 Side 1  free  transition at x/c =  0.9622   79
 Side 2 forced transition at x/c =  0.9999   80

   3   rms: 0.4053E-01   max: -.7474E-01   T at   81  2
       a =  2.000      CL =  0.4517
      Cm = -0.0852     CD =  0.02705   =>   CDf =  0.01104    CDp =  0.01601

 Side 1  free  transition at x/c =  0.9728   80
 Side 2 forced transition at x/c =  0.9999   80

   4   rms: 0.1905E-02   max: -.9632E-02   D at   89  2
       a =  2.000      CL =  0.4527
      Cm = -0.0853     CD =  0.02701   =>   CDf =  0.01103    CDp =  0.01598

 Side 1  free  transition at x/c =  0.9733   80
 Side 2 forced transition at x/c =  0.9999   80

   5   rms: 0.3409E-04   max: -.2672E-03   D at   88  2
       a =  2.000      CL =  0.4528
      Cm = -0.0853     CD =  0.02701   =>   CDf =  0.01104    CDp =  0.01598
 plradd ia,ip,cpol            5          81  0.21954818    

 Point added to stored polar  1
 Save file unspecified or not available
 Dump file unspecified or not available

.OPERva   c>  
.OPERva   c>  
.OPERva   c>   Calculating wake trajectory ...
 Calculating source influence matrix ...

 Solving BL system ...

 Side 1  free  transition at x/c =  0.9733   80
 Side 2 forced transition at x/c =  0.9999   80

   1   rms: 0.2631E+00   max: -.6020E+00   T at   81  2   RLX: 0.416
       a =  1.000      CL =  0.3614
      Cm = -0.0744     CD =  0.02507   =>   CDf =  0.01102    CDp =  0.01405

 Side 1  free  transition at x/c =  0.9974   82
 Side 2 forced transition at x/c =  0.9999   80
 idif Ue xi dudx           1  0.56361204      1.95324421E-03   288.55176    
 Uenew xinew           2  0.15031947      5.20944595E-04

   2   rms: 0.1498E+00   max: -.6323E+00   T at   81  2   RLX: 0.485
       a =  1.000      CL =  0.3071
      Cm = -0.0674     CD =  0.02427   =>   CDf =  0.01109    CDp =  0.01319

 Side 1 forced transition at x/c =  1.0001   81
 Side 2 forced transition at x/c =  0.9999   81

   3   rms: 0.8540E-01   max: -.4787E+00   D at   81  1
       a =  1.000      CL =  0.3324
      Cm = -0.0755     CD =  0.02215   =>   CDf =  0.01078    CDp =  0.01137

 Side 1 forced transition at x/c =  1.0001   81
 Side 2 forced transition at x/c =  0.9999   81

   4   rms: 0.1613E-01   max: 0.1412E+00   D at   90  2
       a =  1.000      CL =  0.3242
      Cm = -0.0745     CD =  0.02289   =>   CDf =  0.01081    CDp =  0.01208

 Side 1 forced transition at x/c =  1.0001   81
 Side 2 forced transition at x/c =  0.9999   81

   5   rms: 0.7221E-03   max: 0.9132E-02   D at   89  2
       a =  1.000      CL =  0.3243
      Cm = -0.0745     CD =  0.02281   =>   CDf =  0.01073    CDp =  0.01208

 Side 1 forced transition at x/c =  1.0001   81
 Side 2 forced transition at x/c =  0.9999   81

   6   rms: 0.2675E-05   max: -.2713E-04   D at   92  2
       a =  1.000      CL =  0.3243
      Cm = -0.0745     CD =  0.02280   =>   CDf =  0.01073    CDp =  0.01208
 plradd ia,ip,cpol            6          80  0.25998983    

 Point added to stored polar  1
 Save file unspecified or not available
 Dump file unspecified or not available

.OPERva   c>  
.OPERva   c>  
.OPERva   c>   Calculating wake trajectory ...
 Calculating source influence matrix ...

 Solving BL system ...

 Side 1 forced transition at x/c =  1.0001   81
 Side 2 forced transition at x/c =  0.9999   81
 idif Ue xi dudx           1  0.46093819      1.78623199E-03   258.05057    
 Uenew xinew           2  4.42973152E-02  1.71661377E-04

   1   rms: 0.1597E+00   max: -.2464E+00   D at   92  2
       a =  0.000      CL =  0.2467
      Cm = -0.0738     CD =  0.01902   =>   CDf =  0.01081    CDp =  0.00821

 Side 1 forced transition at x/c =  1.0001   80
 Side 2 forced transition at x/c =  0.9999   82

   2   rms: 0.2394E-01   max: 0.1085E+00   D at   54  1
       a =  0.000      CL =  0.2427
      Cm = -0.0740     CD =  0.01988   =>   CDf =  0.01015    CDp =  0.00973

 Side 1 forced transition at x/c =  1.0001   80
 Side 2 forced transition at x/c =  0.9999   82

   3   rms: 0.6241E-02   max: -.4271E-01   D at    4  2
       a =  0.000      CL =  0.2417
      Cm = -0.0741     CD =  0.01995   =>   CDf =  0.00996    CDp =  0.00999

 Side 1 forced transition at x/c =  1.0001   80
 Side 2 forced transition at x/c =  0.9999   82

   4   rms: 0.1295E-03   max: 0.6434E-03   D at    8  2
       a =  0.000      CL =  0.2417
      Cm = -0.0741     CD =  0.01994   =>   CDf =  0.00993    CDp =  0.01001

 Side 1 forced transition at x/c =  1.0001   80
 Side 2 forced transition at x/c =  0.9999   82

   5   rms: 0.1683E-05   max: -.1105E-04   C at   82  2
       a =  0.000      CL =  0.2417
      Cm = -0.0741     CD =  0.01994   =>   CDf =  0.00993    CDp =  0.01001
 plradd ia,ip,cpol            7          79  4.66133514E-03

 Point added to stored polar  1
 Save file unspecified or not available
 Dump file unspecified or not available

.OPERva   c>  
.OPERva   c>  
.OPERva   c>   Calculating wake trajectory ...
 Calculating source influence matrix ...

 Solving BL system ...

 Side 1 forced transition at x/c =  1.0001   80
 Side 2 forced transition at x/c =  0.9999   82

   1   rms: 0.1808E+00   max: 0.3228E+00   n at   63  2
       a = -1.000      CL =  0.1537
      Cm = -0.0742     CD =  0.01750   =>   CDf =  0.00992    CDp =  0.00758

 Side 1 forced transition at x/c =  1.0001   80
 Side 2 forced transition at x/c =  0.9999   82

   2   rms: 0.2072E+00   max: 0.6782E+00   n at   49  2
       a = -1.000      CL =  0.1449
      Cm = -0.0746     CD =  0.01803   =>   CDf =  0.00847    CDp =  0.00957

 Side 1 forced transition at x/c =  1.0001   80
 Side 2  free  transition at x/c =  0.3634   36

   3   rms: 0.2418E+00   max: 0.1324E+01   T at   36  2   RLX: 0.380
       a = -1.000      CL =  0.1425
      Cm = -0.0778     CD =  0.02167   =>   CDf =  0.01010    CDp =  0.01157

 Side 1 forced transition at x/c =  1.0001   80
 Side 2  free  transition at x/c =  0.3102   32

   4   rms: 0.1358E+00   max: 0.9032E+00   T at   32  2   RLX: 0.568
       a = -1.000      CL =  0.1481
      Cm = -0.0774     CD =  0.02222   =>   CDf =  0.01042    CDp =  0.01181

 Side 1 forced transition at x/c =  1.0001   80
 Side 2  free  transition at x/c =  0.2755   29

   5   rms: 0.6996E-01   max: 0.5527E+00   T at   29  2   RLX: 0.978
       a = -1.000      CL =  0.1461
      Cm = -0.0764     CD =  0.02246   =>   CDf =  0.01066    CDp =  0.01180

 Side 1 forced transition at x/c =  1.0001   80
 Side 2  free  transition at x/c =  0.2500   27

   6   rms: 0.3552E-01   max: -.3107E+00   D at   28  2
       a = -1.000      CL =  0.1448
      Cm = -0.0760     CD =  0.02308   =>   CDf =  0.01087    CDp =  0.01222

 Side 1 forced transition at x/c =  1.0001   80
 Side 2  free  transition at x/c =  0.2516   28

   7   rms: 0.4953E-02   max: 0.6209E-01   D at   30  2
       a = -1.000      CL =  0.1445
      Cm = -0.0760     CD =  0.02304   =>   CDf =  0.01100    CDp =  0.01204

 Side 1 forced transition at x/c =  1.0001   80
 Side 2  free  transition at x/c =  0.2509   28

   8   rms: 0.4533E-03   max: 0.4426E-02   D at   30  2
       a = -1.000      CL =  0.1446
      Cm = -0.0760     CD =  0.02304   =>   CDf =  0.01097    CDp =  0.01207

 Side 1 forced transition at x/c =  1.0001   80
 Side 2  free  transition at x/c =  0.2508   28

   9   rms: 0.4411E-05   max: 0.2690E-04   D at   92  2
       a = -1.000      CL =  0.1446
      Cm = -0.0760     CD =  0.02304   =>   CDf =  0.01097    CDp =  0.01207
 plradd ia,ip,cpol            8          79  4.66133514E-03

 Point added to stored polar  1
 Save file unspecified or not available
 Dump file unspecified or not available

.OPERva   c>  
.OPERva   c>  
.OPERva   c>   Calculating wake trajectory ...
 Calculating source influence matrix ...

 Solving BL system ...

 Side 1 forced transition at x/c =  1.0001   80
 Side 2  free  transition at x/c =  0.2508   28

   1   rms: 0.6208E+00   max: 0.6059E+01   T at   28  2   RLX: 0.214
       a = -2.000      CL =  0.1168
      Cm = -0.0754     CD =  0.02486   =>   CDf =  0.01096    CDp =  0.01390

 MRCHDU: Convergence failed at  28  side 2    Res =  0.5692E+01
 MRCHDU: Convergence failed at  29  side 2    Res =  0.2508E+02
 MRCHDU: Convergence failed at  30  side 2    Res =  0.1063E+02
 MRCHDU: Convergence failed at  31  side 2    Res =  0.1022E+02
 MRCHDU: Convergence failed at  32  side 2    Res =  0.8760E+01
 MRCHDU: Convergence failed at  33  side 2    Res =  0.1587E+02
 MRCHDU: Convergence failed at  34  side 2    Res =  0.1403E+02
 MRCHDU: Convergence failed at  35  side 2    Res =  0.1347E+02
 MRCHDU: Convergence failed at  36  side 2    Res =  0.1258E+02
 MRCHDU: Convergence failed at  37  side 2    Res =  0.8094E+01
 MRCHDU: Convergence failed at  38  side 2    Res =  0.6013E+01
 MRCHDU: Convergence failed at  39  side 2    Res =  0.6338E+01
 MRCHDU: Convergence failed at  40  side 2    Res =  0.6804E+01
 MRCHDU: Convergence failed at  41  side 2    Res =  0.7153E+01
 MRCHDU: Convergence failed at  42  side 2    Res =  0.8300E+01
 MRCHDU: Convergence failed at  43  side 2    Res =  0.8812E+01
 MRCHDU: Convergence failed at  44  side 2    Res =  0.9076E+01
 MRCHDU: Convergence failed at  45  side 2    Res =  0.9310E+01
 MRCHDU: Convergence failed at  46  side 2    Res =  0.9566E+01
 MRCHDU: Convergence failed at  47  side 2    Res =  0.9790E+01
 MRCHDU: Convergence failed at  48  side 2    Res =  0.1010E+02
 MRCHDU: Convergence failed at  49  side 2    Res =  0.1029E+02
 MRCHDU: Convergence failed at  50  side 2    Res =  0.1053E+02
 MRCHDU: Convergence failed at  51  side 2    Res =  0.1052E+02
 MRCHDU: Convergence failed at  52  side 2    Res =  0.1055E+02
 MRCHDU: Convergence failed at  53  side 2    Res =  0.9500E+01
 MRCHDU: Convergence failed at  54  side 2    Res =  0.9486E+01
 MRCHDU: Convergence failed at  55  side 2    Res =  0.9467E+01
 MRCHDU: Convergence failed at  56  side 2    Res =  0.9427E+01
 MRCHDU: Convergence failed at  57  side 2    Res =  0.9485E+01
 MRCHDU: Convergence failed at  58  side 2    Res =  0.9448E+01
 MRCHDU: Convergence failed at  59  side 2    Res =  0.9442E+01
 MRCHDU: Convergence failed at  60  side 2    Res =  0.9401E+01
 MRCHDU: Convergence failed at  61  side 2    Res =  0.9287E+01
 MRCHDU: Convergence failed at  62  side 2    Res =  0.9141E+01
 MRCHDU: Convergence failed at  63  side 2    Res =  0.8906E+01
 MRCHDU: Convergence failed at  64  side 2    Res =  0.8794E+01
 MRCHDU: Convergence failed at  65  side 2    Res =  0.8666E+01
 MRCHDU: Convergence failed at  66  side 2    Res =  0.8537E+01
 MRCHDU: Convergence failed at  67  side 2    Res =  0.8391E+01
 MRCHDU: Convergence failed at  68  side 2    Res =  0.8234E+01
 MRCHDU: Convergence failed at  69  side 2    Res =  0.8068E+01
 MRCHDU: Convergence failed at  70  side 2    Res =  0.7766E+01
 MRCHDU: Convergence failed at  71  side 2    Res =  0.7587E+01
 MRCHDU: Convergence failed at  72  side 2    Res =  0.7395E+01
 MRCHDU: Convergence failed at  73  side 2    Res =  0.7210E+01
 MRCHDU: Convergence failed at  74  side 2    Res =  0.7006E+01
 MRCHDU: Convergence failed at  75  side 2    Res =  0.6812E+01
 MRCHDU: Convergence failed at  76  side 2    Res =  0.6604E+01
 MRCHDU: Convergence failed at  77  side 2    Res =  0.6448E+01
 MRCHDU: Convergence failed at  78  side 2    Res =  0.6290E+01
 MRCHDU: Convergence failed at  79  side 2    Res =  0.6128E+01
 MRCHDU: Convergence failed at  80  side 2    Res =  0.6170E+01
 MRCHDU: Convergence failed at  81  side 2    Res =  0.6295E+01
 Side 1 forced transition at x/c =  1.0001   80
 Side 2  free  transition at x/c =  0.2118   25
 idif Ue xi dudx           1  0.41680351      2.35486031E-03   176.99713    
 Uenew xinew           2  6.68860599E-02  3.77893448E-04

   2   rms: 0.4416E+00   max: 0.4734E+01   T at   25  2   RLX: 0.317
       a = -2.000      CL = -0.0143
      Cm = -0.0421     CD =  0.02222   =>   CDf =  0.00604    CDp =  0.01618

 MRCHDU: Convergence failed at  26  side 2    Res =  0.1086E+02
 MRCHDU: Convergence failed at  27  side 2    Res =  0.1335E+02
 MRCHDU: Convergence failed at  28  side 2    Res =  0.1110E+02
 MRCHDU: Convergence failed at  29  side 2    Res =  0.1190E+02
 MRCHDU: Convergence failed at  30  side 2    Res =  0.1606E+02
 MRCHDU: Convergence failed at  31  side 2    Res =  0.9429E+02
 MRCHDU: Convergence failed at  32  side 2    Res =  0.6633E+01
 Side 1 forced transition at x/c =  1.0001   79
 Side 2  free  transition at x/c =  0.1806   23

   3   rms: 0.2173E+00   max: 0.2176E+01   T at   23  2   RLX: 0.425
       a = -2.000      CL = -0.0153
      Cm = -0.0579     CD =  0.03138   =>   CDf =  0.00946    CDp =  0.02192

 Side 1 forced transition at x/c =  1.0001   79
 Side 2  free  transition at x/c =  0.1634   22

   4   rms: 0.2128E+00   max: 0.2061E+01   T at   22  2   RLX: 0.479
       a = -2.000      CL =  0.0059
      Cm = -0.0649     CD =  0.03370   =>   CDf =  0.00840    CDp =  0.02530

 Side 1 forced transition at x/c =  1.0001   79
 Side 2  free  transition at x/c =  0.1511   21

   5   rms: 0.2048E+00   max: -.8249E+00   D at   46  2   RLX: 0.606
       a = -2.000      CL =  0.0170
      Cm = -0.0709     CD =  0.03197   =>   CDf =  0.00830    CDp =  0.02367

 Side 1 forced transition at x/c =  1.0001   79
 Side 2  free  transition at x/c =  0.1465   21

   6   rms: 0.1711E+00   max: -.7456E+00   D at   47  2   RLX: 0.671
       a = -2.000      CL =  0.0241
      Cm = -0.0740     CD =  0.02906   =>   CDf =  0.00878    CDp =  0.02028

 Side 1 forced transition at x/c =  1.0001   79
 Side 2  free  transition at x/c =  0.1433   21

   7   rms: 0.7371E-01   max: -.4263E+00   D at   50  2
       a = -2.000      CL =  0.0217
      Cm = -0.0741     CD =  0.02826   =>   CDf =  0.00940    CDp =  0.01886

 Side 1 forced transition at x/c =  1.0001   79
 Side 2  free  transition at x/c =  0.1428   21

   8   rms: 0.1183E-01   max: -.8502E-01   D at   50  2
       a = -2.000      CL =  0.0190
      Cm = -0.0735     CD =  0.02876   =>   CDf =  0.00983    CDp =  0.01893

 Side 1 forced transition at x/c =  1.0001   79
 Side 2  free  transition at x/c =  0.1433   21

   9   rms: 0.2654E-03   max: -.3258E-02   D at   50  2
       a = -2.000      CL =  0.0189
      Cm = -0.0735     CD =  0.02875   =>   CDf =  0.00981    CDp =  0.01895

 Side 1 forced transition at x/c =  1.0001   79
 Side 2  free  transition at x/c =  0.1433   21

  10   rms: 0.1908E-05   max: 0.1015E-04   D at   88  2
       a = -2.000      CL =  0.0189
      Cm = -0.0735     CD =  0.02875   =>   CDf =  0.00981    CDp =  0.01895
 plradd ia,ip,cpol            9          78  2.35468918E-03

 Point added to stored polar  1
 Save file unspecified or not available
 Dump file unspecified or not available

.OPERva   c>  
.OPERva   c>  
.OPERva   c>   Calculating wake trajectory ...
 Calculating source influence matrix ...

 Solving BL system ...

 Side 1 forced transition at x/c =  1.0001   79
 Side 2  free  transition at x/c =  0.1433   21
 idif Ue xi dudx           1  0.33791399      2.72011757E-03   124.22771    
 Uenew xinew           2  2.77226306E-02  2.23159790E-04

   1   rms: 0.3248E+00   max: 0.9025E+00   D at   34  2
       a = -3.000      CL = -0.1203
      Cm = -0.0683     CD =  0.03827   =>   CDf =  0.00971    CDp =  0.02856

 MRCHDU: Convergence failed at  28  side 2    Res =  0.1006E+03
 MRCHDU: Convergence failed at  29  side 2    Res =  0.7065E+02
 MRCHDU: Convergence failed at  30  side 2    Res =  0.8761E+02
 MRCHDU: Convergence failed at  31  side 2    Res =  0.3790E+02
 MRCHDU: Convergence failed at  32  side 2    Res =  0.2627E+02
 MRCHDU: Convergence failed at  33  side 2    Res =  0.2338E+02
 MRCHDU: Convergence failed at  34  side 2    Res =  0.4683E+02
 MRCHDU: Convergence failed at  35  side 2    Res =  0.8591E+02
 MRCHDU: Convergence failed at  36  side 2    Res =  0.1209E+03
 MRCHDU: Convergence failed at  37  side 2    Res =  0.3216E+03
 MRCHDU: Convergence failed at  38  side 2    Res =  0.4499E+04
 MRCHDU: Convergence failed at  39  side 2    Res =  0.9508E+02
 MRCHDU: Convergence failed at  40  side 2    Res =  0.1343E+03
 MRCHDU: Convergence failed at  41  side 2    Res =  0.6884E+02
 MRCHDU: Convergence failed at  42  side 2    Res =  0.5204E+02
 MRCHDU: Convergence failed at  43  side 2    Res =  0.5631E+02
 MRCHDU: Convergence failed at  44  side 2    Res =  0.8056E+02
 MRCHDU: Convergence failed at  45  side 2    Res =  0.5269E+02
 MRCHDU: Convergence failed at  46  side 2    Res =  0.4596E+02
 MRCHDU: Convergence failed at  47  side 2    Res =  0.4184E+02
 MRCHDU: Convergence failed at  48  side 2    Res =  0.1400E+03
 MRCHDU: Convergence failed at  49  side 2    Res =  0.1159E+03
 MRCHDU: Convergence failed at  50  side 2    Res =  0.1057E+03
 MRCHDU: Convergence failed at  51  side 2    Res =  0.9780E+02
 MRCHDU: Convergence failed at  52  side 2    Res =  0.9136E+02
 MRCHDU: Convergence failed at  53  side 2    Res =  0.8606E+02
 MRCHDU: Convergence failed at  54  side 2    Res =  0.5534E+02
 MRCHDU: Convergence failed at  55  side 2    Res =  0.5174E+02
 MRCHDU: Convergence failed at  56  side 2    Res =  0.9676E+02
 MRCHDU: Convergence failed at  57  side 2    Res =  0.1108E+03
 MRCHDU: Convergence failed at  58  side 2    Res =  0.9004E+02
 MRCHDU: Convergence failed at  59  side 2    Res =  0.8735E+02
 MRCHDU: Convergence failed at  60  side 2    Res =  0.8494E+02
 MRCHDU: Convergence failed at  61  side 2    Res =  0.8289E+02
 MRCHDU: Convergence failed at  62  side 2    Res =  0.8095E+02
 MRCHDU: Convergence failed at  63  side 2    Res =  0.7917E+02
 MRCHDU: Convergence failed at  64  side 2    Res =  0.7749E+02
 MRCHDU: Convergence failed at  65  side 2    Res =  0.7593E+02
 MRCHDU: Convergence failed at  66  side 2    Res =  0.7449E+02
 MRCHDU: Convergence failed at  67  side 2    Res =  0.6456E+02
 MRCHDU: Convergence failed at  68  side 2    Res =  0.6659E+02
 MRCHDU: Convergence failed at  69  side 2    Res =  0.6878E+02
 MRCHDU: Convergence failed at  70  side 2    Res =  0.7603E+02
 MRCHDU: Convergence failed at  71  side 2    Res =  0.7567E+02
 MRCHDU: Convergence failed at  72  side 2    Res =  0.7417E+02
 MRCHDU: Convergence failed at  73  side 2    Res =  0.7318E+02
 MRCHDU: Convergence failed at  74  side 2    Res =  0.7060E+02
 MRCHDU: Convergence failed at  75  side 2    Res =  0.7246E+02
 MRCHDU: Convergence failed at  76  side 2    Res =  0.7441E+02
 MRCHDU: Convergence failed at  77  side 2    Res =  0.7644E+02
 MRCHDU: Convergence failed at  78  side 2    Res =  0.7869E+02
 MRCHDU: Convergence failed at  79  side 2    Res =  0.8102E+02
 MRCHDU: Convergence failed at  80  side 2    Res =  0.8356E+02
 MRCHDU: Convergence failed at  81  side 2    Res =  0.8633E+02
 MRCHDU: Convergence failed at  82  side 2    Res =  0.8936E+02
 MRCHDU: Convergence failed at  83  side 2    Res =  0.9158E+02
 MRCHDU: Convergence failed at  84  side 2    Res =  0.8904E+02
 Side 1 forced transition at x/c =  1.0001   78
 Side 2  free  transition at x/c =  0.2240   28

   2   rms: 0.1466E+01   max: 0.1541E+02   T at   28  2   RLX: 0.096
       a = -3.000      CL = -0.7164
      Cm =  0.1583     CD =  0.01391   =>   CDf =  0.00566    CDp =  0.00825

 Side 1 forced transition at x/c =  1.0001   79
 Side 2  free  transition at x/c =  0.2041   25

   3   rms: 0.7738E+00   max: 0.9573E+01   T at   25  2   RLX: 0.107
       a = -3.000      CL = -0.4631
      Cm =  0.0587     CD =  0.06864   =>   CDf =  0.00589    CDp =  0.06275

 Side 1 forced transition at x/c =  1.0001   79
 Side 2  free  transition at x/c =  0.1944   24

   4   rms: 0.7003E+00   max: 0.5246E+01   T at   24  2   RLX: 0.171
       a = -3.000      CL = -0.3747
      Cm =  0.0389     CD =  0.06790   =>   CDf =  0.00626    CDp =  0.06164

 Side 1 forced transition at x/c =  1.0001   79
 Side 2  free  transition at x/c =  0.1988   25

   5   rms: 0.8248E+00   max: 0.1121E+02   T at   25  2   RLX: 0.134
       a = -3.000      CL = -0.3732
      Cm =  0.0248     CD =  0.07955   =>   CDf =  0.00693    CDp =  0.07262

 Side 1 forced transition at x/c =  1.0001   79
 Side 2  free  transition at x/c =  0.1850   24

   6   rms: 0.4073E+00   max: -.3850E+01   T at   24  2   RLX: 0.130
       a = -3.000      CL = -0.3804
      Cm =  0.0313     CD =  0.08514   =>   CDf =  0.00691    CDp =  0.07823

 Side 1 forced transition at x/c =  1.0001   79
 Side 2  free  transition at x/c =  0.1933   24

   7   rms: 0.3733E+00   max: -.1122E+01   D at  100  2   RLX: 0.446
       a = -3.000      CL = -0.2803
      Cm = -0.0018     CD =  0.05765   =>   CDf =  0.00700    CDp =  0.05065

 MRCHDU: Convergence failed at  97  side 2    Res =  0.2246E+01
 Side 1 forced transition at x/c =  1.0001   79
 Side 2  free  transition at x/c =  0.1944   24
 idif Ue xi dudx           1  0.33966902      2.75361538E-03   123.35384    
 Uenew xinew           2  3.16597000E-02  2.56657600E-04

   8   rms: 0.3921E+00   max: -.1321E+01   D at  100  2   RLX: 0.378
       a = -3.000      CL = -0.2746
      Cm = -0.0248     CD =  0.07969   =>   CDf =  0.00689    CDp =  0.07279

 Side 1 forced transition at x/c =  1.0001   78
 Side 2  free  transition at x/c =  0.1965   26

   9   rms: 0.5198E+00   max: -.3360E+01   T at   26  2   RLX: 0.149
       a = -3.000      CL = -0.2231
      Cm = -0.0390     CD =  0.08336   =>   CDf =  0.00681    CDp =  0.07655

 Side 1 forced transition at x/c =  1.0001   78
 Side 2  free  transition at x/c =  0.2017   26

  10   rms: 0.3225E+00   max: -.3273E+01   T at   26  2   RLX: 0.153
       a = -3.000      CL = -0.2592
      Cm = -0.0247     CD =  0.08202   =>   CDf =  0.00701    CDp =  0.07501

 Side 1 forced transition at x/c =  1.0001   79
 Side 2  free  transition at x/c =  0.2072   25
 idif Ue xi dudx           1  0.32162336      2.52366066E-03   127.44318    
 Uenew xinew           2  3.40310019E-03  2.67028809E-05

  11   rms: 0.4356E+01   max: 0.7640E+02   D at    2  1   RLX: 0.016
       a = -3.000      CL = -0.2932
      Cm = -0.0143     CD =  0.09369   =>   CDf =  0.00663    CDp =  0.08706

 Side 1 forced transition at x/c =  1.0001   78
 Side 2  free  transition at x/c =  0.2077   26

  12   rms: 0.4526E+04   max: 0.8000E+05   D at    2  2   RLX: 0.000
       a = -3.000      CL = -0.2939
      Cm = -0.0143     CD =  0.09428   =>   CDf =  0.00674    CDp =  0.08754

 Side 1 forced transition at x/c =  1.0001   78
 Side 2  free  transition at x/c =  0.2077   26

  13   rms: 0.9007E+00   max: -.3978E+01   T at   26  2   RLX: 0.126
       a = -3.000      CL = -0.3449
      Cm = -0.0194     CD =  0.09022   =>   CDf =  0.00674    CDp =  0.08348

 Side 1 forced transition at x/c =  1.0001   78
 Side 2  free  transition at x/c =  0.2063   26

  14   rms: 0.3726E+00   max: 0.1809E+01   C at   78  1   RLX: 0.306
       a = -3.000      CL = -0.3649
      Cm = -0.0283     CD =  0.06827   =>   CDf =  0.00656    CDp =  0.06171

 Side 1 forced transition at x/c =  1.0001   78
 Side 2  free  transition at x/c =  0.2081   26

  15   rms: 0.8268E+00   max: 0.4796E+01   C at   78  1   RLX: 0.216
       a = -3.000      CL = -0.4607
      Cm = -0.0375     CD =  0.07722   =>   CDf =  0.00628    CDp =  0.07094

 MRCHDU: Convergence failed at  98  side 2    Res =  0.8960E+01
 MRCHDU: Convergence failed at  99  side 2    Res =  0.1202E+02
 MRCHDU: Convergence failed at 100  side 2    Res =  0.6049E+01
 Side 1 forced transition at x/c =  1.0001   78
 Side 2  free  transition at x/c =  0.2078   26

  16   rms: 0.3712E+00   max: 0.1878E+01   C at   78  1   RLX: 0.507
       a = -3.000      CL = -0.5030
      Cm = -0.0259     CD =  0.07272   =>   CDf =  0.00606    CDp =  0.06666

 MRCHDU: Convergence failed at  39  side 2    Res =  0.2881E+03
 MRCHDU: Convergence failed at  40  side 2    Res =  0.6352E+02
 MRCHDU: Convergence failed at  41  side 2    Res =  0.2225E+04
 MRCHDU: Convergence failed at  42  side 2    Res =  0.1145E+03
 MRCHDU: Convergence failed at  43  side 2    Res =  0.1059E+03
 MRCHDU: Convergence failed at  44  side 2    Res =  0.1692E+03
 MRCHDU: Convergence failed at  45  side 2    Res =  0.8780E+02
 MRCHDU: Convergence failed at  46  side 2    Res =  0.1172E+03
 MRCHDU: Convergence failed at  47  side 2    Res =  0.1099E+03
 MRCHDU: Convergence failed at  48  side 2    Res =  0.2094E+03
 MRCHDU: Convergence failed at  49  side 2    Res =  0.1114E+03
 MRCHDU: Convergence failed at  50  side 2    Res =  0.1211E+03
 MRCHDU: Convergence failed at  51  side 2    Res =  0.1450E+03
 MRCHDU: Convergence failed at  52  side 2    Res =  0.2232E+04
 MRCHDU: Convergence failed at  53  side 2    Res =  0.2696E+03
 MRCHDU: Convergence failed at  54  side 2    Res =  0.3359E+03
 MRCHDU: Convergence failed at  55  side 2    Res =  0.4694E+03
 MRCHDU: Convergence failed at  56  side 2    Res =  0.7493E+03
 MRCHDU: Convergence failed at  57  side 2    Res =  0.5122E+03
 MRCHDU: Convergence failed at  58  side 2    Res =  0.2479E+04
 MRCHDU: Convergence failed at  59  side 2    Res =  0.9936E+03
 MRCHDU: Convergence failed at  60  side 2    Res =  0.6333E+03
 MRCHDU: Convergence failed at  61  side 2    Res =  0.4862E+03
 MRCHDU: Convergence failed at  62  side 2    Res =  0.4201E+03
 MRCHDU: Convergence failed at  63  side 2    Res =  0.2978E+03
 MRCHDU: Convergence failed at  64  side 2    Res =  0.2663E+03
 MRCHDU: Convergence failed at  65  side 2    Res =  0.2418E+03
 MRCHDU: Convergence failed at  66  side 2    Res =  0.2243E+03
 MRCHDU: Convergence failed at  67  side 2    Res =  0.2143E+03
 MRCHDU: Convergence failed at  68  side 2    Res =  0.2155E+03
 MRCHDU: Convergence failed at  69  side 2    Res =  0.1765E+03
 MRCHDU: Convergence failed at  70  side 2    Res =  0.1693E+03
 MRCHDU: Convergence failed at  71  side 2    Res =  0.1628E+03
 MRCHDU: Convergence failed at  72  side 2    Res =  0.1639E+03
 MRCHDU: Convergence failed at  73  side 2    Res =  0.1687E+03
 MRCHDU: Convergence failed at  74  side 2    Res =  0.1722E+03
 MRCHDU: Convergence failed at  75  side 2    Res =  0.1754E+03
 MRCHDU: Convergence failed at  76  side 2    Res =  0.1492E+03
 MRCHDU: Convergence failed at  77  side 2    Res =  0.1608E+03
 MRCHDU: Convergence failed at  78  side 2    Res =  0.1718E+03
 MRCHDU: Convergence failed at  79  side 2    Res =  0.1797E+03
 MRCHDU: Convergence failed at  80  side 2    Res =  0.1866E+03
 MRCHDU: Convergence failed at  81  side 2    Res =  0.1882E+03
 MRCHDU: Convergence failed at  82  side 2    Res =  0.1897E+03
 MRCHDU: Convergence failed at  83  side 2    Res =  0.1878E+03
 MRCHDU: Convergence failed at  84  side 2    Res =  0.1836E+03
 MRCHDU: Convergence failed at  86  side 2    Res =  0.4182E+01
 MRCHDU: Convergence failed at  87  side 2    Res =  0.3889E+01
 MRCHDU: Convergence failed at  88  side 2    Res =  0.3571E+01
 MRCHDU: Convergence failed at  89  side 2    Res =  0.3259E+01
 MRCHDU: Convergence failed at  90  side 2    Res =  0.2905E+01
 MRCHDU: Convergence failed at  91  side 2    Res =  0.2487E+01
 MRCHDU: Convergence failed at  92  side 2    Res =  0.2032E+01
 MRCHDU: Convergence failed at  93  side 2    Res =  0.1553E+01
 MRCHDU: Convergence failed at  94  side 2    Res =  0.9267E+00
 MRCHDU: Convergence failed at  95  side 2    Res =  0.9167E-02
 MRCHDU: Convergence failed at  97  side 2    Res =  0.1078E+01
 MRCHDU: Convergence failed at  98  side 2    Res =  0.5224E+01
 MRCHDU: Convergence failed at  99  side 2    Res =  0.1691E+01
 MRCHDU: Convergence failed at 100  side 2    Res =  0.1825E+01
 Side 1 forced transition at x/c =  1.0001   78
 Side 2  free  transition at x/c =  0.3792   39

  17   rms: 0.1530E+01   max: -.1257E+02   T at   39  2   RLX: 0.040
       a = -3.000      CL = -1.1929
      Cm =  0.2712     CD =  0.00906   =>   CDf =  0.00447    CDp =  0.00460

 Side 1 forced transition at x/c =  1.0001   78
 Side 2  free  transition at x/c =  0.3804   39

  18   rms: 0.9512E+00   max: -.6602E+01   T at   39  2   RLX: 0.076
       a = -3.000      CL = -1.0308
      Cm =  0.2145     CD =  0.06427   =>   CDf =  0.00474    CDp =  0.05954

 Side 1 forced transition at x/c =  1.0001   78
 Side 2  free  transition at x/c =  0.3821   39

  19   rms: 0.7490E+00   max: 0.3488E+01   D at   95  2   RLX: 0.246
       a = -3.000      CL = -0.7654
      Cm =  0.1442     CD =  0.06221   =>   CDf =  0.00511    CDp =  0.05710

 Side 1 forced transition at x/c =  1.0001   78
 Side 2  free  transition at x/c =  0.3830   39

  20   rms: 0.8160E+00   max: 0.1505E+02   C at   39  2   RLX: 0.100
       a = -3.000      CL = -0.6818
      Cm =  0.1201     CD =  0.09496   =>   CDf =  0.00634    CDp =  0.08862

 Side 1 forced transition at x/c =  1.0001   78
 Side 2  free  transition at x/c =  0.3836   39

  21   rms: 0.4620E+00   max: 0.2375E+01   C at   39  2   RLX: 0.457
       a = -3.000      CL = -0.3831
      Cm =  0.0448     CD =  0.06188   =>   CDf =  0.00673    CDp =  0.05516

 Side 1 forced transition at x/c =  1.0001   79
 Side 2  free  transition at x/c =  0.3868   38

  22   rms: 0.3721E+00   max: -.9964E+00   C at  104  2   RLX: 0.502
       a = -3.000      CL = -0.2145
      Cm = -0.0016     CD =  0.06956   =>   CDf =  0.00717    CDp =  0.06239

 Side 1 forced transition at x/c =  1.0001   79
 Side 2  free  transition at x/c =  0.9160   77

  23   rms: 0.2285E+00   max: 0.1563E+01   T at   77  2   RLX: 0.723
       a = -3.000      CL = -0.1718
      Cm =  0.0106     CD =  0.05254   =>   CDf =  0.00669    CDp =  0.04585

 Side 1 forced transition at x/c =  1.0001   79
 Side 2  free  transition at x/c =  0.8061   69

  24   rms: 0.4588E+00   max: 0.7246E+01   T at   69  2   RLX: 0.207
       a = -3.000      CL = -0.2109
      Cm =  0.0126     CD =  0.05594   =>   CDf =  0.00635    CDp =  0.04959

 Side 1 forced transition at x/c =  1.0001   79
 Side 2  free  transition at x/c =  0.7330   63

  25   rms: 0.4188E+00   max: 0.7371E+01   T at   63  2   RLX: 0.119
       a = -3.000      CL = -0.2006
      Cm =  0.0113     CD =  0.05485   =>   CDf =  0.00613    CDp =  0.04872

 Side 1 forced transition at x/c =  1.0001   79
 Side 2  free  transition at x/c =  0.7296   63

  26   rms: 0.2353E+00   max: -.3239E+01   T at   63  2   RLX: 0.154
       a = -3.000      CL = -0.1752
      Cm =  0.0081     CD =  0.05599   =>   CDf =  0.00613    CDp =  0.04986

 Side 1 forced transition at x/c =  1.0001   79
 Side 2  free  transition at x/c =  0.7630   66

  27   rms: 0.2715E+00   max: -.4394E+01   T at   66  2   RLX: 0.114
       a = -3.000      CL = -0.1591
      Cm =  0.0052     CD =  0.05608   =>   CDf =  0.00615    CDp =  0.04993

 Side 1 forced transition at x/c =  1.0001   79
 Side 2  free  transition at x/c =  0.7690   66

  28   rms: 0.1322E+00   max: 0.1201E+01   T at   66  2   RLX: 0.744
       a = -3.000      CL = -0.1720
      Cm =  0.0058     CD =  0.04911   =>   CDf =  0.00617    CDp =  0.04294

 Side 1 forced transition at x/c =  1.0001   79
 Side 2  free  transition at x/c =  0.6982   61

  29   rms: 0.5292E+00   max: -.1089E+02   T at   61  2   RLX: 0.046
       a = -3.000      CL = -0.1616
      Cm =  0.0027     CD =  0.06048   =>   CDf =  0.00597    CDp =  0.05451

 Side 1 forced transition at x/c =  1.0001   79
 Side 2  free  transition at x/c =  0.7011   61

  30   rms: 0.1447E+00   max: 0.1280E+01   T at   61  2   RLX: 0.766
       a = -3.000      CL = -0.2138
      Cm =  0.0101     CD =  0.04848   =>   CDf =  0.00599    CDp =  0.04249

 Side 1 forced transition at x/c =  1.0001   79
 Side 2  free  transition at x/c =  0.4613   44

  31   rms: 0.5499E+00   max: -.1038E+02   T at   44  2   RLX: 0.048
       a = -3.000      CL = -0.1923
      Cm =  0.0055     CD =  0.08194   =>   CDf =  0.00593    CDp =  0.07600

 Side 1 forced transition at x/c =  1.0001   79
 Side 2  free  transition at x/c =  0.4617   44

  32   rms: 0.2530E+00   max: -.1848E+01   T at   44  2   RLX: 0.271
       a = -3.000      CL = -0.1818
      Cm =  0.0013     CD =  0.06945   =>   CDf =  0.00598    CDp =  0.06347

 Side 1 forced transition at x/c =  1.0001   79
 Side 2  free  transition at x/c =  0.4644   44

  33   rms: 0.2236E+00   max: -.7936E+00   D at   60  2   RLX: 0.630
       a = -3.000      CL = -0.2097
      Cm = -0.0007     CD =  0.05317   =>   CDf =  0.00605    CDp =  0.04712

 MRCHDU: Convergence failed at  83  side 2    Res =  0.1969E+04
 Side 1 forced transition at x/c =  1.0001   79
 Side 2 forced transition at x/c =  0.9999   83

  34   rms: 0.3869E+00   max: 0.2347E+01   D at   89  2   RLX: 0.545
       a = -3.000      CL = -0.1081
      Cm =  0.0011     CD =  0.01987   =>   CDf =  0.00562    CDp =  0.01426

 Side 1 forced transition at x/c =  1.0001   79
 Side 2  free  transition at x/c =  0.7620   66

  35   rms: 0.1843E+00   max: 0.1440E+01   T at   66  2   RLX: 0.606
       a = -3.000      CL = -0.1071
      Cm = -0.0111     CD =  0.05672   =>   CDf =  0.00659    CDp =  0.05013

 Side 1 forced transition at x/c =  1.0001   79
 Side 2  free  transition at x/c =  0.7371   64

  36   rms: 0.1371E+00   max: -.1668E+01   T at   64  2   RLX: 0.300
       a = -3.000      CL = -0.1183
      Cm = -0.0079     CD =  0.05142   =>   CDf =  0.00631    CDp =  0.04511

 Side 1 forced transition at x/c =  1.0001   79
 Side 2  free  transition at x/c =  0.7440   64

  37   rms: 0.1266E+00   max: -.6814E+00   D at   83  2   RLX: 0.734
       a = -3.000      CL = -0.1974
      Cm =  0.0076     CD =  0.05301   =>   CDf =  0.00618    CDp =  0.04683

 Side 1 forced transition at x/c =  1.0001   79
 Side 2  free  transition at x/c =  0.5966   54

  38   rms: 0.1668E+00   max: -.1464E+01   T at   54  2   RLX: 0.342
       a = -3.000      CL = -0.1933
      Cm =  0.0057     CD =  0.05703   =>   CDf =  0.00587    CDp =  0.05115

 Side 1 forced transition at x/c =  1.0001   79
 Side 2  free  transition at x/c =  0.6000   54

  39   rms: 0.2177E+00   max: 0.3211E+01   T at   54  2   RLX: 0.433
       a = -3.000      CL = -0.2242
      Cm =  0.0066     CD =  0.05486   =>   CDf =  0.00588    CDp =  0.04898

 MRCHDU: Convergence failed at  43  side 2    Res =  0.6992E-05
 Side 1 forced transition at x/c =  1.0001   79
 Side 2  free  transition at x/c =  0.4545   43

  40   rms: 0.2343E+00   max: -.2011E+01   T at   43  2   RLX: 0.249
       a = -3.000      CL = -0.2250
      Cm =  0.0057     CD =  0.07065   =>   CDf =  0.00586    CDp =  0.06478

 Side 1 forced transition at x/c =  1.0001   79
 Side 2  free  transition at x/c =  0.4506   43

  41   rms: 0.2023E+00   max: -.7414E+00   D at   64  2   RLX: 0.674
       a = -3.000      CL = -0.2667
      Cm =  0.0062     CD =  0.05428   =>   CDf =  0.00585    CDp =  0.04843

 Side 1 forced transition at x/c =  1.0001   79
 Side 2  free  transition at x/c =  0.4791   45

  42   rms: 0.1005E+00   max: -.7945E+00   T at   45  2   RLX: 0.629
       a = -3.000      CL = -0.2610
      Cm = -0.0057     CD =  0.05238   =>   CDf =  0.00583    CDp =  0.04655

 MRCHDU: Convergence failed at  83  side 2    Res =  0.4011E+03
 Side 1 forced transition at x/c =  1.0001   79
 Side 2 forced transition at x/c =  0.9999   83

  43   rms: 0.4393E+00   max: 0.2548E+01   D at   88  2   RLX: 0.411
       a = -3.000      CL = -0.2142
      Cm =  0.0286     CD =  0.01697   =>   CDf =  0.00516    CDp =  0.01181

 Side 1 forced transition at x/c =  1.0001   79
 Side 2  free  transition at x/c =  0.8297   70

  44   rms: 0.5187E+00   max: -.9241E+01   T at   70  2   RLX: 0.054
       a = -3.000      CL = -0.2011
      Cm =  0.0188     CD =  0.04425   =>   CDf =  0.00621    CDp =  0.03805

 Side 1 forced transition at x/c =  1.0001   79
 Side 2  free  transition at x/c =  0.8243   70

  45   rms: 0.1582E+00   max: 0.1716E+01   T at   70  2   RLX: 0.644
       a = -3.000      CL = -0.1294
      Cm = -0.0002     CD =  0.04851   =>   CDf =  0.00620    CDp =  0.04231

 Side 1 forced transition at x/c =  1.0001   79
 Side 2  free  transition at x/c =  0.7543   65

  46   rms: 0.1162E+00   max: -.7210E+00   D at   83  2   RLX: 0.694
       a = -3.000      CL = -0.1393
      Cm = -0.0013     CD =  0.05201   =>   CDf =  0.00627    CDp =  0.04574

 Side 1 forced transition at x/c =  1.0001   79
 Side 2  free  transition at x/c =  0.7356   64

  47   rms: 0.8788E+00   max: -.1412E+02   T at   64  2   RLX: 0.035
       a = -3.000      CL = -0.1194
      Cm = -0.0059     CD =  0.05268   =>   CDf =  0.00605    CDp =  0.04662

 Side 1 forced transition at x/c =  1.0001   79
 Side 2  free  transition at x/c =  0.7429   64

  48   rms: 0.1210E+00   max: -.5840E+00   D at   65  2   RLX: 0.856
       a = -3.000      CL = -0.2112
      Cm =  0.0117     CD =  0.05125   =>   CDf =  0.00612    CDp =  0.04513

 Side 1 forced transition at x/c =  1.0001   79
 Side 2  free  transition at x/c =  0.4556   43

  49   rms: 0.3005E+00   max: -.2990E+01   T at   43  2   RLX: 0.167
       a = -3.000      CL = -0.1961
      Cm =  0.0038     CD =  0.07433   =>   CDf =  0.00593    CDp =  0.06840

 Side 1 forced transition at x/c =  1.0001   79
 Side 2  free  transition at x/c =  0.4513   43

  50   rms: 0.2327E+00   max: -.8279E+00   D at   63  2   RLX: 0.604
       a = -3.000      CL = -0.2093
      Cm = -0.0008     CD =  0.05059   =>   CDf =  0.00596    CDp =  0.04463

 MRCHDU: Convergence failed at  83  side 2    Res =  0.4123E+04
 Side 1 forced transition at x/c =  1.0001   79
 Side 2 forced transition at x/c =  0.9999   83

  51   rms: 0.4078E+00   max: 0.2605E+01   D at   88  2   RLX: 0.517
       a = -3.000      CL = -0.1193
      Cm =  0.0039     CD =  0.02005   =>   CDf =  0.00563    CDp =  0.01442

 Side 1 forced transition at x/c =  1.0001   79
 Side 2  free  transition at x/c =  0.7986   68

  52   rms: 0.4327E+00   max: 0.8771E+01   T at   68  2   RLX: 0.118
       a = -3.000      CL = -0.1133
      Cm = -0.0058     CD =  0.04958   =>   CDf =  0.00650    CDp =  0.04308

 Side 1 forced transition at x/c =  1.0001   79
 Side 2  free  transition at x/c =  0.7882   67

  53   rms: 0.2163E+00   max: -.2659E+01   T at   67  2   RLX: 0.188
       a = -3.000      CL = -0.1180
      Cm = -0.0050     CD =  0.05393   =>   CDf =  0.00644    CDp =  0.04749

 Side 1 forced transition at x/c =  1.0001   79
 Side 2  free  transition at x/c =  0.7835   67

  54   rms: 0.1194E+00   max: -.7829E+00   D at   83  2   RLX: 0.639
       a = -3.000      CL = -0.1224
      Cm = -0.0045     CD =  0.04990   =>   CDf =  0.00635    CDp =  0.04355

 Side 1 forced transition at x/c =  1.0001   79
 Side 2  free  transition at x/c =  0.7503   65

  55   rms: 0.1317E+00   max: -.6706E+00   D at   83  2   RLX: 0.746
       a = -3.000      CL = -0.1975
      Cm =  0.0077     CD =  0.05236   =>   CDf =  0.00617    CDp =  0.04618

 Side 1 forced transition at x/c =  1.0001   79
 Side 2  free  transition at x/c =  0.5991   54

  56   rms: 0.1816E+00   max: -.2451E+01   T at   54  2   RLX: 0.204
       a = -3.000      CL = -0.1921
      Cm =  0.0063     CD =  0.06136   =>   CDf =  0.00587    CDp =  0.05548

 Side 1 forced transition at x/c =  1.0001   79
 Side 2  free  transition at x/c =  0.5998   54

  57   rms: 0.1904E+00   max: 0.2281E+01   T at   54  2   RLX: 0.658
       a = -3.000      CL = -0.2310
      Cm =  0.0073     CD =  0.04961   =>   CDf =  0.00588    CDp =  0.04373

 Side 1 forced transition at x/c =  1.0001   79
 Side 2  free  transition at x/c =  0.4501   43

  58   rms: 0.2273E+00   max: -.2587E+01   T at   43  2   RLX: 0.193
       a = -3.000      CL = -0.2232
      Cm =  0.0056     CD =  0.07392   =>   CDf =  0.00585    CDp =  0.06808

 Side 1 forced transition at x/c =  1.0001   79
 Side 2  free  transition at x/c =  0.4488   43

  59   rms: 0.2050E+00   max: -.7523E+00   D at   53  2   RLX: 0.665
       a = -3.000      CL = -0.2372
      Cm =  0.0017     CD =  0.05310   =>   CDf =  0.00585    CDp =  0.04725

 Side 1 forced transition at x/c =  1.0001   79
 Side 2  free  transition at x/c =  0.4558   43

  60   rms: 0.2319E+00   max: -.1258E+01   T at   43  2   RLX: 0.398
       a = -3.000      CL = -0.2026
      Cm = -0.0222     CD =  0.06326   =>   CDf =  0.00582    CDp =  0.05744

 Side 1 forced transition at x/c =  1.0001   79
 Side 2  free  transition at x/c =  0.4555   43

  61   rms: 0.1821E+00   max: -.5846E+00   D at   76  2   RLX: 0.855
[...]
 Save file unspecified or not available
 Dump file unspecified or not available

.OPERva   c>  
.OPERva   c>  
.OPERva   c>   Calculating wake trajectory ...
 Calculating source influence matrix ...

 Solving BL system ...

 Side 1 forced transition at x/c =  1.0001   77
 Side 2  free  transition at x/c =  0.1396   22

   1   rms: 0.2045E+00   max: -.8102E+00   C at   77  1   RLX: 0.617
       a = -9.000      CL = -0.3822
      Cm = -0.0139     CD =  0.11405   =>   CDf =  0.00663    CDp =  0.10742

 Side 1 forced transition at x/c =  1.0001   77
 Side 2  free  transition at x/c =  0.1325   22

   2   rms: 0.6216E-01   max: 0.5286E+00   T at   22  2
       a = -9.000      CL = -0.3794
      Cm = -0.0197     CD =  0.11001   =>   CDf =  0.00707    CDp =  0.10294

 Side 1 forced transition at x/c =  1.0001   77
 Side 2  free  transition at x/c =  0.1259   21

   3   rms: 0.7745E-01   max: -.3366E+00   D at   22  2
       a = -9.000      CL = -0.3968
      Cm = -0.0213     CD =  0.11268   =>   CDf =  0.00716    CDp =  0.10551

 Side 1 forced transition at x/c =  1.0001   77
 Side 2  free  transition at x/c =  0.1252   21

   4   rms: 0.3113E-01   max: -.1372E+00   D at  102  2
       a = -9.000      CL = -0.4097
      Cm = -0.0194     CD =  0.11923   =>   CDf =  0.00709    CDp =  0.11214

 Side 1 forced transition at x/c =  1.0001   77
 Side 2  free  transition at x/c =  0.1238   21

   5   rms: 0.8619E-02   max: -.6829E-01   D at   21  2
       a = -9.000      CL = -0.4056
      Cm = -0.0200     CD =  0.11904   =>   CDf =  0.00701    CDp =  0.11203

 Side 1 forced transition at x/c =  1.0001   77
 Side 2  free  transition at x/c =  0.1247   21

   6   rms: 0.2104E-02   max: -.9320E-02   D at   22  2
       a = -9.000      CL = -0.4059
      Cm = -0.0201     CD =  0.11867   =>   CDf =  0.00700    CDp =  0.11167

 Side 1 forced transition at x/c =  1.0001   77
 Side 2  free  transition at x/c =  0.1247   21

   7   rms: 0.9311E-03   max: 0.6172E-02   T at   21  2
       a = -9.000      CL = -0.4062
      Cm = -0.0200     CD =  0.11886   =>   CDf =  0.00700    CDp =  0.11185

 Side 1 forced transition at x/c =  1.0001   77
 Side 2  free  transition at x/c =  0.1246   21

   8   rms: 0.1331E-03   max: -.9938E-03   T at   21  2
       a = -9.000      CL = -0.4062
      Cm = -0.0201     CD =  0.11886   =>   CDf =  0.00700    CDp =  0.11185

 Side 1 forced transition at x/c =  1.0001   77
 Side 2  free  transition at x/c =  0.1246   21

   9   rms: 0.2271E-04   max: 0.1785E-03   T at   21  2
       a = -9.000      CL = -0.4062
      Cm = -0.0201     CD =  0.11886   =>   CDf =  0.00700    CDp =  0.11186
 plradd ia,ip,cpol           16          76  1.20102741E-04

 Point added to stored polar  1
 Save file unspecified or not available
 Dump file unspecified or not available

.OPERva   c>  
.OPERva   c>  
.OPERva   c>   Calculating wake trajectory ...
 Calculating source influence matrix ...

 Solving BL system ...

 Side 1 forced transition at x/c =  1.0001   77
 Side 2  free  transition at x/c =  0.1246   21

   1   rms: 0.1834E+00   max: 0.1269E+01   T at   21  2   RLX: 0.634
       a =-10.000      CL = -0.3925
      Cm = -0.0119     CD =  0.12329   =>   CDf =  0.00699    CDp =  0.11630

 Side 1 forced transition at x/c =  1.0001   77
 Side 2  free  transition at x/c =  0.1148   21

   2   rms: 0.1035E+00   max: 0.4876E+00   T at   22  2
       a =-10.000      CL = -0.3804
      Cm = -0.0175     CD =  0.11408   =>   CDf =  0.00728    CDp =  0.10680

 Side 1 forced transition at x/c =  1.0001   77
 Side 2  free  transition at x/c =  0.1121   20

   3   rms: 0.9659E-01   max: -.3225E+00   D at  104  2
       a =-10.000      CL = -0.4146
      Cm = -0.0156     CD =  0.12028   =>   CDf =  0.00741    CDp =  0.11287

 Side 1 forced transition at x/c =  1.0001   77
 Side 2  free  transition at x/c =  0.1092   20

   4   rms: 0.2252E-01   max: -.1553E+00   D at  103  2
       a =-10.000      CL = -0.4207
      Cm = -0.0155     CD =  0.12817   =>   CDf =  0.00731    CDp =  0.12086

 Side 1 forced transition at x/c =  1.0001   77
 Side 2  free  transition at x/c =  0.1090   20

   5   rms: 0.3750E-02   max: -.3310E-01   D at  103  2
       a =-10.000      CL = -0.4206
      Cm = -0.0154     CD =  0.12984   =>   CDf =  0.00724    CDp =  0.12260

 Side 1 forced transition at x/c =  1.0001   77
 Side 2  free  transition at x/c =  0.1090   20

   6   rms: 0.7097E-03   max: -.7883E-02   T at   20  2
       a =-10.000      CL = -0.4200
      Cm = -0.0155     CD =  0.12974   =>   CDf =  0.00722    CDp =  0.12252

 Side 1 forced transition at x/c =  1.0001   77
 Side 2  free  transition at x/c =  0.1091   20

   7   rms: 0.8875E-04   max: 0.9405E-03   T at   20  2
       a =-10.000      CL = -0.4201
      Cm = -0.0155     CD =  0.12973   =>   CDf =  0.00722    CDp =  0.12251
 plradd ia,ip,cpol           17          76  1.20102741E-04

 Point added to stored polar  1
 Save file unspecified or not available
 Dump file unspecified or not available

.OPERva   c>  
.OPERva   c>  
.OPERva   c>   Calculating wake trajectory ...
 Calculating source influence matrix ...

 Solving BL system ...

 Side 1 forced transition at x/c =  1.0001   77
 Side 2  free  transition at x/c =  0.1091   20

   1   rms: 0.1140E+00   max: 0.1497E+01   T at   20  2   RLX: 0.803
       a =-11.000      CL = -0.4256
      Cm = -0.0087     CD =  0.14003   =>   CDf =  0.00721    CDp =  0.13282

 Side 1 forced transition at x/c =  1.0001   77
 Side 2  free  transition at x/c =  0.0979   19

   2   rms: 0.1065E+00   max: -.4789E+00   D at   21  2
       a =-11.000      CL = -0.4068
      Cm = -0.0144     CD =  0.12725   =>   CDf =  0.00743    CDp =  0.11982

 Side 1 forced transition at x/c =  1.0001   77
 Side 2  free  transition at x/c =  0.0995   20
 idif Ue xi dudx           1  0.27599409      6.43789768E-03   42.870220    
 Uenew xinew           2  5.14119156E-02  1.19924545E-03

   3   rms: 0.1111E+01   max: 0.7094E+01   T at   20  2   RLX: 0.211
       a =-11.000      CL = -0.4211
      Cm = -0.0444     CD =  0.17121   =>   CDf =  0.00714    CDp =  0.16407

 Side 1 forced transition at x/c =  1.0001   76
 Side 2  free  transition at x/c =  0.0947   20

   4   rms: 0.5075E+00   max: 0.2409E+01   D at   21  2   RLX: 0.623
       a =-11.000      CL = -0.4227
      Cm = -0.0208     CD =  0.17895   =>   CDf =  0.00740    CDp =  0.17155

 Side 1 forced transition at x/c =  1.0001   77
 Side 2  free  transition at x/c =  0.0952   19

   5   rms: 0.2092E+00   max: 0.7427E+00   D at   20  2
       a =-11.000      CL = -0.4625
      Cm = -0.0044     CD =  0.16627   =>   CDf =  0.00721    CDp =  0.15906

 Side 1 forced transition at x/c =  1.0001   77
 Side 2  free  transition at x/c =  0.0956   19

   6   rms: 0.3458E-01   max: -.2834E+00   T at   19  2
       a =-11.000      CL = -0.4398
      Cm = -0.0126     CD =  0.14372   =>   CDf =  0.00732    CDp =  0.13639

 Side 1 forced transition at x/c =  1.0001   77
 Side 2  free  transition at x/c =  0.0971   19

   7   rms: 0.1017E-01   max: -.8812E-01   D at   19  2
       a =-11.000      CL = -0.4449
      Cm = -0.0125     CD =  0.14303   =>   CDf =  0.00736    CDp =  0.13567

 Side 1 forced transition at x/c =  1.0001   77
 Side 2  free  transition at x/c =  0.0974   19

   8   rms: 0.2706E-02   max: -.1199E-01   D at  103  2
       a =-11.000      CL = -0.4462
      Cm = -0.0123     CD =  0.14407   =>   CDf =  0.00735    CDp =  0.13672

 Side 1 forced transition at x/c =  1.0001   77
 Side 2  free  transition at x/c =  0.0974   19

   9   rms: 0.7263E-03   max: -.4006E-02   T at   19  2
       a =-11.000      CL = -0.4458
      Cm = -0.0123     CD =  0.14404   =>   CDf =  0.00735    CDp =  0.13670

 Side 1 forced transition at x/c =  1.0001   77
 Side 2  free  transition at x/c =  0.0974   19

  10   rms: 0.7084E-04   max: 0.3935E-03   T at   19  2
       a =-11.000      CL = -0.4459
      Cm = -0.0123     CD =  0.14403   =>   CDf =  0.00735    CDp =  0.13668
 plradd ia,ip,cpol           18          76  1.20102741E-04

 Point added to stored polar  1
 Save file unspecified or not available
 Dump file unspecified or not available

.OPERva   c>  
.OPERva   c>  
.OPERva   c>   Calculating wake trajectory ...
 Calculating source influence matrix ...

 Solving BL system ...

 Side 1 forced transition at x/c =  1.0001   77
 Side 2  free  transition at x/c =  0.0974   19

   1   rms: 0.1476E+00   max: 0.8896E+00   T at   19  2   RLX: 0.691
       a =-12.000      CL = -0.4404
      Cm = -0.0050     CD =  0.15015   =>   CDf =  0.00733    CDp =  0.14281

 Side 1 forced transition at x/c =  1.0001   77
 Side 2  free  transition at x/c =  0.0904   19

   2   rms: 0.8046E-01   max: -.3645E+00   D at   20  2
       a =-12.000      CL = -0.4335
      Cm = -0.0078     CD =  0.13761   =>   CDf =  0.00751    CDp =  0.13010

 Side 1 forced transition at x/c =  1.0001   77
 Side 2  free  transition at x/c =  0.0887   19
 idif Ue xi dudx           1  0.25935718      6.13439083E-03   42.279209    
 Uenew xinew           2  3.78711186E-02  8.95738602E-04

   3   rms: 0.5496E-01   max: 0.3092E+00   T at   19  2
       a =-12.000      CL = -0.4667
      Cm = -0.0073     CD =  0.15157   =>   CDf =  0.00725    CDp =  0.14432

 Side 1 forced transition at x/c =  1.0001   76
 Side 2  free  transition at x/c =  0.0856   20

   4   rms: 0.4167E-01   max: -.1802E+00   T at   20  2
       a =-12.000      CL = -0.4599
      Cm = -0.0079     CD =  0.15000   =>   CDf =  0.00742    CDp =  0.14258

 Side 1 forced transition at x/c =  1.0001   76
 Side 2  free  transition at x/c =  0.0864   20

   5   rms: 0.2602E-01   max: 0.1629E+00   T at   20  2
       a =-12.000      CL = -0.4706
      Cm = -0.0084     CD =  0.15515   =>   CDf =  0.00742    CDp =  0.14773

 Side 1 forced transition at x/c =  1.0001   76
 Side 2  free  transition at x/c =  0.0856   20

   6   rms: 0.1758E-01   max: 0.8984E-01   T at   20  2
       a =-12.000      CL = -0.4751
      Cm = -0.0092     CD =  0.15769   =>   CDf =  0.00738    CDp =  0.15032

 Side 1 forced transition at x/c =  1.0001   76
 Side 2  free  transition at x/c =  0.0853   20

   7   rms: 0.1411E+00   max: -.8327E+00   T at   20  2   RLX: 0.600
       a =-12.000      CL = -0.4543
      Cm = -0.0062     CD =  0.15215   =>   CDf =  0.00735    CDp =  0.14480

 Side 1 forced transition at x/c =  1.0001   76
 Side 2  free  transition at x/c =  0.0868   20

   8   rms: 0.5633E-01   max: -.2555E+00   D at   20  2
       a =-12.000      CL = -0.4503
      Cm = -0.0079     CD =  0.14432   =>   CDf =  0.00745    CDp =  0.13687

 Side 1 forced transition at x/c =  1.0001   76
 Side 2  free  transition at x/c =  0.0873   20

   9   rms: 0.3801E-01   max: 0.2544E+00   T at   20  2
       a =-12.000      CL = -0.4717
      Cm = -0.0079     CD =  0.15497   =>   CDf =  0.00747    CDp =  0.14750

 Side 1 forced transition at x/c =  1.0001   76
 Side 2  free  transition at x/c =  0.0854   20

  10   rms: 0.6213E-01   max: -.3728E+00   T at   20  2
       a =-12.000      CL = -0.4565
      Cm = -0.0073     CD =  0.14942   =>   CDf =  0.00738    CDp =  0.14204

 Side 1 forced transition at x/c =  1.0001   76
 Side 2  free  transition at x/c =  0.0866   20

  11   rms: 0.3505E-01   max: -.1615E+00   D at   20  2
       a =-12.000      CL = -0.4610
      Cm = -0.0081     CD =  0.15007   =>   CDf =  0.00744    CDp =  0.14264

 Side 1 forced transition at x/c =  1.0001   76
 Side 2  free  transition at x/c =  0.0864   20

  12   rms: 0.2864E-01   max: 0.1952E+00   T at   20  2
       a =-12.000      CL = -0.4739
      Cm = -0.0085     CD =  0.15681   =>   CDf =  0.00742    CDp =  0.14939

 Side 1 forced transition at x/c =  1.0001   76
 Side 2  free  transition at x/c =  0.0853   20

  13   rms: 0.5103E-01   max: -.3047E+00   T at   20  2
       a =-12.000      CL = -0.4614
      Cm = -0.0076     CD =  0.15239   =>   CDf =  0.00736    CDp =  0.14503

 Side 1 forced transition at x/c =  1.0001   76
 Side 2  free  transition at x/c =  0.0863   20

  14   rms: 0.2532E-01   max: -.1099E+00   D at   20  2
       a =-12.000      CL = -0.4649
      Cm = -0.0083     CD =  0.15247   =>   CDf =  0.00741    CDp =  0.14506

 Side 1 forced transition at x/c =  1.0001   76
 Side 2  free  transition at x/c =  0.0861   20

  15   rms: 0.2626E-01   max: 0.1785E+00   T at   20  2
       a =-12.000      CL = -0.4754
      Cm = -0.0089     CD =  0.15779   =>   CDf =  0.00740    CDp =  0.15039

 Side 1 forced transition at x/c =  1.0001   76
 Side 2  free  transition at x/c =  0.0853   20

  16   rms: 0.1422E-01   max: -.5563E-01   D at   20  2
       a =-12.000      CL = -0.4772
      Cm = -0.0097     CD =  0.15857   =>   CDf =  0.00735    CDp =  0.15122

 Side 1 forced transition at x/c =  1.0001   76
 Side 2  free  transition at x/c =  0.0852   20

  17   rms: 0.4233E-01   max: -.2376E+00   T at   20  2
       a =-12.000      CL = -0.4680
      Cm = -0.0080     CD =  0.15630   =>   CDf =  0.00734    CDp =  0.14897

 Side 1 forced transition at x/c =  1.0001   76
 Side 2  free  transition at x/c =  0.0858   20

  18   rms: 0.1543E-01   max: -.6328E-01   D at   20  2
       a =-12.000      CL = -0.4696
      Cm = -0.0087     CD =  0.15520   =>   CDf =  0.00738    CDp =  0.14782

 Side 1 forced transition at x/c =  1.0001   76
 Side 2  free  transition at x/c =  0.0857   20

  19   rms: 0.2991E-01   max: 0.1952E+00   T at   20  2
       a =-12.000      CL = -0.4795
      Cm = -0.0095     CD =  0.15976   =>   CDf =  0.00737    CDp =  0.15239

 Side 1 forced transition at x/c =  1.0001   76
 Side 2  free  transition at x/c =  0.0850   20

  20   rms: 0.1700E-01   max: -.5839E-01   D at   20  2
       a =-12.000      CL = -0.4776
      Cm = -0.0098     CD =  0.15864   =>   CDf =  0.00733    CDp =  0.15131

 Side 1 forced transition at x/c =  1.0001   76
 Side 2  free  transition at x/c =  0.0851   20

  21   rms: 0.3727E-01   max: -.2064E+00   T at   20  2
       a =-12.000      CL = -0.4698
      Cm = -0.0083     CD =  0.15691   =>   CDf =  0.00733    CDp =  0.14958

 Side 1 forced transition at x/c =  1.0001   76
 Side 2  free  transition at x/c =  0.0857   20

  22   rms: 0.1397E-01   max: 0.5608E-01   T at   20  2
       a =-12.000      CL = -0.4724
      Cm = -0.0089     CD =  0.15657   =>   CDf =  0.00737    CDp =  0.14920

 Side 1 forced transition at x/c =  1.0001   76
 Side 2  free  transition at x/c =  0.0855   20

  23   rms: 0.4888E-01   max: 0.3044E+00   T at   20  2
       a =-12.000      CL = -0.4865
      Cm = -0.0106     CD =  0.16242   =>   CDf =  0.00736    CDp =  0.15506

 Side 1 forced transition at x/c =  1.0001   76
 Side 2  free  transition at x/c =  0.0848   19

  24   rms: 0.1151E-01   max: 0.6600E-01   D at   20  2
       a =-12.000      CL = -0.4858
      Cm = -0.0101     CD =  0.16473   =>   CDf =  0.00733    CDp =  0.15740

 Side 1 forced transition at x/c =  1.0001   76
 Side 2  free  transition at x/c =  0.0848   19

  25   rms: 0.3241E-02   max: 0.1724E-01   D at  104  2
       a =-12.000      CL = -0.4845
      Cm = -0.0104     CD =  0.16336   =>   CDf =  0.00732    CDp =  0.15604

 Side 1 forced transition at x/c =  1.0001   76
 Side 2  free  transition at x/c =  0.0849   19

  26   rms: 0.4455E-03   max: -.1910E-02   C at   76  1
       a =-12.000      CL = -0.4848
      Cm = -0.0104     CD =  0.16322   =>   CDf =  0.00733    CDp =  0.15589

 Side 1 forced transition at x/c =  1.0001   76
 Side 2  free  transition at x/c =  0.0849   19

  27   rms: 0.4168E-04   max: 0.1436E-03   T at   20  2
       a =-12.000      CL = -0.4848
      Cm = -0.0104     CD =  0.16321   =>   CDf =  0.00733    CDp =  0.15588
 plradd ia,ip,cpol           19          75  1.20102741E-04

 Point added to stored polar  1
 Save file unspecified or not available
 Dump file unspecified or not available

.OPERva   c>  
.OPERva   c>  
.OPERva   c>   Calculating wake trajectory ...
 Calculating source influence matrix ...

 Solving BL system ...

 Side 1 forced transition at x/c =  1.0001   76
 Side 2  free  transition at x/c =  0.0849   19

   1   rms: 0.1293E+00   max: -.4464E+00   T at   20  2   RLX: 0.920
       a =-13.000      CL = -0.4702
      Cm = -0.0011     CD =  0.16999   =>   CDf =  0.00732    CDp =  0.16267

 Side 1 forced transition at x/c =  1.0001   76
 Side 2  free  transition at x/c =  0.0814   19

   2   rms: 0.4354E-01   max: -.1731E+00   D at   19  2
       a =-13.000      CL = -0.4782
      Cm = -0.0023     CD =  0.15798   =>   CDf =  0.00755    CDp =  0.15043

 Side 1 forced transition at x/c =  1.0001   76
 Side 2  free  transition at x/c =  0.0805   19

   3   rms: 0.1528E-01   max: 0.8893E-01   T at   19  2
       a =-13.000      CL = -0.4885
      Cm = -0.0014     CD =  0.16631   =>   CDf =  0.00757    CDp =  0.15874

 Side 1 forced transition at x/c =  1.0001   76
 Side 2  free  transition at x/c =  0.0797   19

   4   rms: 0.1872E-02   max: -.1098E-01   T at   19  2
       a =-13.000      CL = -0.4869
      Cm = -0.0016     CD =  0.16700   =>   CDf =  0.00752    CDp =  0.15948

 Side 1 forced transition at x/c =  1.0001   76
 Side 2  free  transition at x/c =  0.0798   19

   5   rms: 0.4190E-03   max: 0.2629E-02   T at   19  2
       a =-13.000      CL = -0.4873
      Cm = -0.0016     CD =  0.16707   =>   CDf =  0.00752    CDp =  0.15955

 Side 1 forced transition at x/c =  1.0001   76
 Side 2  free  transition at x/c =  0.0798   19

   6   rms: 0.3838E-04   max: -.2421E-03   T at   19  2
       a =-13.000      CL = -0.4872
      Cm = -0.0016     CD =  0.16710   =>   CDf =  0.00752    CDp =  0.15958
 plradd ia,ip,cpol           20          75  1.20102741E-04

 Point added to stored polar  1
 Save file unspecified or not available
 Dump file unspecified or not available

.OPERva   c>  
.OPERva   c>  
.OPERva   c>  
        airfoil                    Re           Mach       Ncrit  XtripT  XtripB     file
       ------------------------  ------------  ----------  -----  ------  ------    -------------------
 >  1  naca pippo                5.000e4       0.000        9.00   1.000   1.000    

Enter polar output filename   s>  
.OPERva   c>  
 ==============================================================
 Polar  1
  
       XFOIL         Version 6.99
  
 Calculated polar for: naca pippo                                      
  
 1 1 Reynolds number fixed          Mach number fixed         
  
 xtrf =   1.000 (top)        1.000 (bottom)  
 Mach =   0.000     Re =     0.050 e 6     Ncrit =   9.000
  
   alpha    CL        CD       CDp       CM     Top_Xtr  Bot_Xtr
  ------ -------- --------- --------- -------- -------- --------
   6.000   0.9889   0.02718   0.01604  -0.0766   0.1659   0.9999
   5.000   0.8872   0.03691   0.02816  -0.1119   0.7836   0.9999
   4.000   0.7651   0.03398   0.02397  -0.1095   0.8483   0.9999
   3.000   0.6199   0.03084   0.02004  -0.1008   0.9092   0.9999
   2.000   0.4528   0.02701   0.01598  -0.0853   0.9733   0.9999
   1.000   0.3243   0.02280   0.01208  -0.0745   1.0001   0.9999
   0.000   0.2417   0.01994   0.01001  -0.0741   1.0001   0.9999
  -1.000   0.1446   0.02304   0.01207  -0.0760   1.0001   0.2508
  -2.000   0.0189   0.02875   0.01895  -0.0735   1.0001   0.1433
  -3.000  -0.2997   0.05053   0.04501  -0.0066   1.0001   0.4941
  -4.000  -0.3154   0.06109   0.05533  -0.0229   1.0001   0.3244
  -5.000  -0.3425   0.07348   0.06749  -0.0309   1.0001   0.2366
  -6.000  -0.3679   0.08409   0.07793  -0.0241   1.0001   0.1903
  -7.000  -0.3797   0.09513   0.08871  -0.0224   1.0001   0.1629
  -8.000  -0.4075   0.11043   0.10379  -0.0245   1.0001   0.1396
  -9.000  -0.4062   0.11886   0.11186  -0.0201   1.0001   0.1246
 -10.000  -0.4201   0.12973   0.12251  -0.0155   1.0001   0.1091
 -11.000  -0.4459   0.14403   0.13668  -0.0123   1.0001   0.0974
 -12.000  -0.4848   0.16321   0.15588  -0.0104   1.0001   0.0849
 -13.000  -0.4872   0.16710   0.15958  -0.0016   1.0001   0.0798

.OPERva   c>  
 XFOIL   c>  