
 ===================================================
  XFOIL Version 6.99
  Copyright (C) 2000   Mark Drela, Harold Youngren

  This software comes with ABSOLUTELY NO WARRANTY,
    subject to the GNU General Public License.

  Caveat computor
 ===================================================

 File  xfoil.def  not found

   QUIT    Exit program

  .OPER    Direct operating point(s)
  .MDES    Complex mapping design routine
  .QDES    Surface speed design routine
  .GDES    Geometry design routine

   SAVE f  Write airfoil to labeled coordinate file
   PSAV f  Write airfoil to plain coordinate file
   ISAV f  Write airfoil to ISES coordinate file
   MSAV f  Write airfoil to MSES coordinate file
   REVE    Reverse written-airfoil node ordering

   LOAD f  Read buffer airfoil from coordinate file
   NACA i  Set NACA 4,5-digit airfoil and buffer airfoil
   INTE    Set buffer airfoil by interpolating two airfoils
   NORM    Buffer airfoil normalization toggle
   XYCM rr Change CM reference location, currently  0.25000 0.00000

   BEND    Display structural properties of current airfoil

   PCOP    Set current-airfoil panel nodes directly from buffer airfoil points
   PANE    Set current-airfoil panel nodes ( 160 ) based on curvature
  .PPAR    Show/change paneling

  .PLOP    Plotting options

   WDEF f  Write  current-settings file
   RDEF f  Reread current-settings file
   NAME s  Specify new airfoil name
   NINC    Increment name version number

   Z       Zoom    | (available in all menus)
   U       Unzoom  | 

 XFOIL   c>  
 Plain airfoil file

Enter airfoil name   s>  
 Number of input coordinate points:  61
 Counterclockwise ordering
 Max thickness =     0.056689  at x =   0.238
 Max camber    =     0.066672  at x =   0.510

  LE  x,y  =  -0.00009   0.00048  |   Chord =   1.00009
  TE  x,y  =   1.00000   0.00000  |

 Current airfoil nodes set from buffer airfoil nodes (  61 )

 WARNING: Poor input coordinate distribution
          Excessive panel angle   64.8  at i =  34
          Repaneling with PANE and/or PPAR suggested
           (doing GDES,CADD before repaneling _may_
            improve excessively coarse LE spacing

 XFOIL   c>   N    command not recognized.  Type a "?" for list

 XFOIL   c>   330  command not recognized.  Type a "?" for list

 XFOIL   c>  
 XFOIL   c>  
.OPERi   c>   Current iteration limit:          10

Enter new iteration limit   i>  
.OPERi   c>  
 XFOIL   c>  
 XFOIL   c>  
 XFOIL   c>  
.OPERi   c>  
.OPERi   c>  
.OPERi   c>  
 M  =    0.0000
 Re =     50000

.OPERv   c>  
 Polar  1 newly created for accumulation
 Airfoil archived with polar: panels                                          

Enter  polar save filename  OR  <return> for no file   s>  
 Polar save file will NOT be written

Enter  polar dump filename  OR  <return> for no file   s>  
 Polar dump file will NOT be written

 Polar accumulation enabled

.OPERva   c>   Calculating unit vorticity distributions ...
 Calculating wake trajectory ...
 Calculating source influence matrix ...

 Solving BL system ...

 Initializing BL ...
    side            1  ...
 MRCHUE: Inverse mode at  23     Hk =   4.239
 MRCHUE: Inverse mode at  24     Hk =   4.755
 MRCHUE: Inverse mode at  25     Hk =   5.228
 MRCHUE: Inverse mode at  26     Hk =   5.660
 MRCHUE: Inverse mode at  27     Hk =   6.050
 MRCHUE: Inverse mode at  28     Hk =   6.397
 MRCHUE: Inverse mode at  29     Hk =   6.700
 MRCHUE: Inverse mode at  30     Hk =   6.959
 MRCHUE: Inverse mode at  31     Hk =   7.176
 MRCHUE: Inverse mode at  32     Hk =   7.353
 MRCHUE: Inverse mode at  33     Hk =   7.490
 MRCHUE: Inverse mode at  34     Hk =   7.579
 MRCHUE: Inverse mode at  35     Hk =   7.610
    side            2  ...
 MRCHUE: Inverse mode at  30     Hk =   4.440
 MRCHUE: Inverse mode at  31     Hk =   3.698
 MRCHUE: Inverse mode at  32     Hk =   3.054

 Side 1 forced transition at x/c =  1.0000   35
 Side 2 forced transition at x/c =  1.0000   28

   1   rms: 0.7544E+00   max: -.4006E+01   C at   28  2   RLX: 0.125
       a =  2.000      CL =  1.2625
      Cm = -0.2771     CD =  0.00744   =>   CDf =  0.01072    CDp = -0.00328

 Side 1 forced transition at x/c =  1.0000   35
 Side 2 forced transition at x/c =  1.0000   28

   2   rms: 0.6484E+00   max: 0.2712E+01   D at   33  2   RLX: 0.211
       a =  2.000      CL =  1.1544
      Cm = -0.2547     CD =  0.00983   =>   CDf =  0.01087    CDp = -0.00104

 Side 1 forced transition at x/c =  1.0000   35
 Side 2 forced transition at x/c =  1.0000   28

   3   rms: 0.5332E+00   max: 0.2087E+01   D at   33  2   RLX: 0.404
       a =  2.000      CL =  0.9707
      Cm = -0.2173     CD =  0.01536   =>   CDf =  0.01103    CDp =  0.00432

 Side 1 forced transition at x/c =  1.0000   35
 Side 2 forced transition at x/c =  1.0000   28
 idif Ue xi dudx           1   1.0752331      4.78744507E-03   224.59435    
 Uenew xinew           2  0.14741617      6.56366348E-04

   4   rms: 0.3756E+00   max: 0.1515E+01   D at   33  2   RLX: 0.540
       a =  2.000      CL =  0.7911
      Cm = -0.1823     CD =  0.02502   =>   CDf =  0.01211    CDp =  0.01291

 Side 1 forced transition at x/c =  1.0000   34
 Side 2 forced transition at x/c =  1.0000   29

   5   rms: 0.2186E+00   max: 0.8316E+00   D at   34  2
       a =  2.000      CL =  0.5957
      Cm = -0.1469     CD =  0.03869   =>   CDf =  0.01091    CDp =  0.02778

 Side 1 forced transition at x/c =  1.0000   34
 Side 2 forced transition at x/c =  1.0000   29

   6   rms: 0.3827E-01   max: 0.3764E+00   D at    5  2
       a =  2.000      CL =  0.5848
      Cm = -0.1461     CD =  0.04128   =>   CDf =  0.00983    CDp =  0.03145

 Side 1 forced transition at x/c =  1.0000   34
 Side 2 forced transition at x/c =  1.0000   29

   7   rms: 0.6628E-01   max: 0.2448E+00   n at    9  2
       a =  2.000      CL =  0.5850
      Cm = -0.1463     CD =  0.04112   =>   CDf =  0.00956    CDp =  0.03156

 Side 1 forced transition at x/c =  1.0000   34
 Side 2 forced transition at x/c =  1.0000   29

   8   rms: 0.1827E-01   max: 0.9925E-01   D at    7  2
       a =  2.000      CL =  0.5848
      Cm = -0.1464     CD =  0.04112   =>   CDf =  0.00944    CDp =  0.03168

 Side 1 forced transition at x/c =  1.0000   34
 Side 2 forced transition at x/c =  1.0000   29

   9   rms: 0.5294E-02   max: 0.3188E-01   D at    8  2
       a =  2.000      CL =  0.5848
      Cm = -0.1465     CD =  0.04112   =>   CDf =  0.00937    CDp =  0.03175

 Side 1 forced transition at x/c =  1.0000   34
 Side 2  free  transition at x/c =  0.5005   16

  10   rms: 0.5016E+00   max: 0.6130E+01   C at   16  2   RLX: 0.245
       a =  2.000      CL =  0.5843
      Cm = -0.1470     CD =  0.04381   =>   CDf =  0.01000    CDp =  0.03381

 Side 1 forced transition at x/c =  1.0000   34
 Side 2  free  transition at x/c =  0.3895   14

  11   rms: 0.3434E+00   max: 0.4456E+01   C at   14  2   RLX: 0.337
       a =  2.000      CL =  0.5810
      Cm = -0.1464     CD =  0.04365   =>   CDf =  0.01036    CDp =  0.03329

 Side 1 forced transition at x/c =  1.0000   34
 Side 2  free  transition at x/c =  0.2539   12

  12   rms: 0.1803E+00   max: 0.2486E+01   C at   12  2   RLX: 0.603
       a =  2.000      CL =  0.5761
      Cm = -0.1452     CD =  0.04340   =>   CDf =  0.01079    CDp =  0.03261

 Side 1 forced transition at x/c =  1.0000   34
 Side 2  free  transition at x/c =  0.1733   10

  13   rms: 0.1051E+00   max: -.1338E+01   C at   10  2   RLX: 0.374
       a =  2.000      CL =  0.5821
      Cm = -0.1461     CD =  0.04304   =>   CDf =  0.01114    CDp =  0.03190

 Side 1 forced transition at x/c =  1.0000   34
 Side 2  free  transition at x/c =  0.2271   11

  14   rms: 0.1408E+00   max: -.1654E+01   C at   11  2   RLX: 0.302
       a =  2.000      CL =  0.5889
      Cm = -0.1469     CD =  0.04277   =>   CDf =  0.01098    CDp =  0.03180

 Side 1 forced transition at x/c =  1.0000   34
 Side 2  free  transition at x/c =  0.4811   16

  15   rms: 0.4067E+00   max: 0.5143E+01   C at   16  2   RLX: 0.292
       a =  2.000      CL =  0.5831
      Cm = -0.1462     CD =  0.04310   =>   CDf =  0.01012    CDp =  0.03297

 Side 1 forced transition at x/c =  1.0000   34
 Side 2  free  transition at x/c =  0.4145   15

  16   rms: 0.3225E+00   max: 0.4240E+01   C at   15  2   RLX: 0.354
       a =  2.000      CL =  0.5767
      Cm = -0.1452     CD =  0.04335   =>   CDf =  0.01033    CDp =  0.03301

 Side 1 forced transition at x/c =  1.0000   34
 Side 2  free  transition at x/c =  0.2264   11

  17   rms: 0.3443E+00   max: 0.4747E+01   C at   11  2   RLX: 0.316
       a =  2.000      CL =  0.5719
      Cm = -0.1444     CD =  0.04349   =>   CDf =  0.01089    CDp =  0.03260

 Side 1 forced transition at x/c =  1.0000   34
 Side 2  free  transition at x/c =  0.1631   10

  18   rms: 0.6892E-01   max: -.7514E+00   C at   10  2   RLX: 0.665
       a =  2.000      CL =  0.5826
      Cm = -0.1461     CD =  0.04289   =>   CDf =  0.01116    CDp =  0.03174

 Side 1 forced transition at x/c =  1.0000   34
 Side 2  free  transition at x/c =  0.2315   12

  19   rms: 0.9391E-01   max: 0.1103E+01   C at   12  2
       a =  2.000      CL =  0.5719
      Cm = -0.1443     CD =  0.04326   =>   CDf =  0.01098    CDp =  0.03228

 Side 1 forced transition at x/c =  1.0000   34
 Side 2  free  transition at x/c =  0.1527   10

  20   rms: 0.7567E-01   max: -.6143E+00   C at   10  2   RLX: 0.814
       a =  2.000      CL =  0.5858
      Cm = -0.1467     CD =  0.04267   =>   CDf =  0.01119    CDp =  0.03149

 Side 1 forced transition at x/c =  1.0000   34
 Side 2  free  transition at x/c =  0.3095   13

  21   rms: 0.3274E+00   max: 0.4425E+01   C at   13  2   RLX: 0.339
       a =  2.000      CL =  0.5745
      Cm = -0.1450     CD =  0.04310   =>   CDf =  0.01075    CDp =  0.03234

 Side 1 forced transition at x/c =  1.0000   34
 Side 2  free  transition at x/c =  0.1728   10

  22   rms: 0.3683E+01   max: -.5177E+02   C at   10  2   RLX: 0.010
       a =  2.000      CL =  0.5776
      Cm = -0.1455     CD =  0.04299   =>   CDf =  0.01114    CDp =  0.03184

 Side 1 forced transition at x/c =  1.0000   34
 Side 2  free  transition at x/c =  0.1830   10

  23   rms: 0.5082E-01   max: -.4829E+00   C at   10  2
       a =  2.000      CL =  0.5873
      Cm = -0.1468     CD =  0.04262   =>   CDf =  0.01122    CDp =  0.03140

 Side 1 forced transition at x/c =  1.0000   34
 Side 2  free  transition at x/c =  0.4364   15

  24   rms: 0.5691E+00   max: 0.7262E+01   C at   15  2   RLX: 0.207
       a =  2.000      CL =  0.5763
      Cm = -0.1454     CD =  0.04301   =>   CDf =  0.01030    CDp =  0.03271

 Side 1 forced transition at x/c =  1.0000   34
 Side 2  free  transition at x/c =  0.3866   14

  25   rms: 0.2841E+00   max: -.3630E+01   C at   14  2   RLX: 0.138
       a =  2.000      CL =  0.5813
      Cm = -0.1462     CD =  0.04277   =>   CDf =  0.01051    CDp =  0.03225

 Side 1 forced transition at x/c =  1.0000   34
 Side 2 forced transition at x/c =  1.0000   29

  26   rms: 0.2448E-01   max: 0.1627E+00   D at   10  2
       a =  2.000      CL =  0.5849
      Cm = -0.1465     CD =  0.04116   =>   CDf =  0.00939    CDp =  0.03177

 Side 1 forced transition at x/c =  1.0000   34
 Side 2 forced transition at x/c =  1.0000   29

  27   rms: 0.5686E-02   max: 0.2890E-01   D at    8  2
       a =  2.000      CL =  0.5848
      Cm = -0.1465     CD =  0.04112   =>   CDf =  0.00937    CDp =  0.03175

 Side 1 forced transition at x/c =  1.0000   34
 Side 2  free  transition at x/c =  0.4989   16

  28   rms: 0.4897E+00   max: 0.6006E+01   C at   16  2   RLX: 0.250
       a =  2.000      CL =  0.5843
      Cm = -0.1470     CD =  0.04381   =>   CDf =  0.01001    CDp =  0.03380

 Side 1 forced transition at x/c =  1.0000   34
 Side 2  free  transition at x/c =  0.3878   14

  29   rms: 0.3368E+00   max: 0.4381E+01   C at   14  2   RLX: 0.342
       a =  2.000      CL =  0.5809
      Cm = -0.1463     CD =  0.04364   =>   CDf =  0.01036    CDp =  0.03327

 Side 1 forced transition at x/c =  1.0000   34
 Side 2  free  transition at x/c =  0.2522   12

  30   rms: 0.1737E+00   max: 0.2395E+01   C at   12  2   RLX: 0.626
       a =  2.000      CL =  0.5759
      Cm = -0.1452     CD =  0.04339   =>   CDf =  0.01080    CDp =  0.03259

 Side 1 forced transition at x/c =  1.0000   34
 Side 2  free  transition at x/c =  0.1727   10

  31   rms: 0.1039E+00   max: -.1317E+01   C at   10  2   RLX: 0.380
       a =  2.000      CL =  0.5821
      Cm = -0.1461     CD =  0.04302   =>   CDf =  0.01115    CDp =  0.03188

 Side 1 forced transition at x/c =  1.0000   34
 Side 2  free  transition at x/c =  0.2268   11

  32   rms: 0.1429E+00   max: -.1676E+01   C at   11  2   RLX: 0.298
       a =  2.000      CL =  0.5890
      Cm = -0.1469     CD =  0.04276   =>   CDf =  0.01098    CDp =  0.03179

 Side 1 forced transition at x/c =  1.0000   34
 Side 2  free  transition at x/c =  0.4787   16

  33   rms: 0.3954E+00   max: 0.5031E+01   C at   16  2   RLX: 0.298
       a =  2.000      CL =  0.5829
      Cm = -0.1461     CD =  0.04310   =>   CDf =  0.01014    CDp =  0.03296

 Side 1 forced transition at x/c =  1.0000   34
 Side 2  free  transition at x/c =  0.4052   15

  34   rms: 0.2518E+00   max: 0.3294E+01   C at   15  2   RLX: 0.455
       a =  2.000      CL =  0.5768
      Cm = -0.1453     CD =  0.04332   =>   CDf =  0.01036    CDp =  0.03295

 Side 1 forced transition at x/c =  1.0000   34
 Side 2  free  transition at x/c =  0.2220   11

  35   rms: 0.3548E+00   max: 0.4904E+01   C at   11  2   RLX: 0.306
       a =  2.000      CL =  0.5710
      Cm = -0.1443     CD =  0.04350   =>   CDf =  0.01091    CDp =  0.03259

 Side 1 forced transition at x/c =  1.0000   34
 Side 2  free  transition at x/c =  0.1578   10

  36   rms: 0.6529E-01   max: -.6368E+00   C at   10  2   RLX: 0.785
       a =  2.000      CL =  0.5838
      Cm = -0.1464     CD =  0.04281   =>   CDf =  0.01117    CDp =  0.03164

 Side 1 forced transition at x/c =  1.0000   34
 Side 2  free  transition at x/c =  0.2295   11

  37   rms: 0.9787E-01   max: -.1036E+01   C at   11  2   RLX: 0.483
       a =  2.000      CL =  0.5911
      Cm = -0.1472     CD =  0.04257   =>   CDf =  0.01099    CDp =  0.03158

 Side 1 forced transition at x/c =  1.0000   34
 Side 2  free  transition at x/c =  0.5544   17

  38   rms: 0.2114E+01   max: 0.2424E+02   C at   17  2   RLX: 0.062
       a =  2.000      CL =  0.5836
      Cm = -0.1464     CD =  0.04311   =>   CDf =  0.00987    CDp =  0.03324

 Side 1 forced transition at x/c =  1.0000   34
 Side 2  free  transition at x/c =  0.5065   16

  39   rms: 0.1167E+01   max: -.1502E+02   C at   16  2   RLX: 0.033
       a =  2.000      CL =  0.5868
      Cm = -0.1468     CD =  0.04287   =>   CDf =  0.01016    CDp =  0.03272

 Side 1 forced transition at x/c =  1.0000   34
 Side 2 forced transition at x/c =  1.0000   29

  40   rms: 0.3402E-01   max: -.2630E+00   D at   16  2
       a =  2.000      CL =  0.5850
      Cm = -0.1465     CD =  0.04117   =>   CDf =  0.00942    CDp =  0.03175

 Side 1 forced transition at x/c =  1.0000   34
 Side 2 forced transition at x/c =  1.0000   29

  41   rms: 0.7375E-02   max: 0.4299E-01   D at    8  2
       a =  2.000      CL =  0.5848
      Cm = -0.1465     CD =  0.04112   =>   CDf =  0.00939    CDp =  0.03173

 Side 1 forced transition at x/c =  1.0000   34
 Side 2  free  transition at x/c =  0.5092   16

  42   rms: 0.6542E+00   max: 0.7799E+01   C at   16  2   RLX: 0.192
       a =  2.000      CL =  0.5843
      Cm = -0.1470     CD =  0.04390   =>   CDf =  0.00997    CDp =  0.03392

 Side 1 forced transition at x/c =  1.0000   34
 Side 2  free  transition at x/c =  0.3986   15

  43   rms: 0.2063E+00   max: 0.2761E+01   C at   15  2   RLX: 0.543
       a =  2.000      CL =  0.5810
      Cm = -0.1463     CD =  0.04349   =>   CDf =  0.01033    CDp =  0.03316

 Side 1 forced transition at x/c =  1.0000   34
 Side 2  free  transition at x/c =  0.2617   12

  44   rms: 0.2111E+00   max: 0.2902E+01   C at   12  2   RLX: 0.517
       a =  2.000      CL =  0.5763
      Cm = -0.1453     CD =  0.04339   =>   CDf =  0.01077    CDp =  0.03262

 Side 1 forced transition at x/c =  1.0000   34
 Side 2  free  transition at x/c =  0.1767   10

  45   rms: 0.1146E+00   max: -.1493E+01   C at   10  2   RLX: 0.335
       a =  2.000      CL =  0.5820
      Cm = -0.1461     CD =  0.04306   =>   CDf =  0.01113    CDp =  0.03192

 Side 1 forced transition at x/c =  1.0000   34
 Side 2  free  transition at x/c =  0.2283   11

  46   rms: 0.1353E+00   max: -.1596E+01   C at   11  2   RLX: 0.313
       a =  2.000      CL =  0.5887
      Cm = -0.1469     CD =  0.04278   =>   CDf =  0.01098    CDp =  0.03180

 Side 1 forced transition at x/c =  1.0000   34
 Side 2  free  transition at x/c =  0.4928   16

  47   rms: 0.6990E+00   max: 0.8417E+01   C at   16  2   RLX: 0.178
       a =  2.000      CL =  0.5828
      Cm = -0.1460     CD =  0.04314   =>   CDf =  0.01004    CDp =  0.03310

 Side 1 forced transition at x/c =  1.0000   34
 Side 2  free  transition at x/c =  0.4318   15

  48   rms: 0.9207E+00   max: 0.1203E+02   C at   15  2   RLX: 0.125
       a =  2.000      CL =  0.5744
      Cm = -0.1447     CD =  0.04354   =>   CDf =  0.01031    CDp =  0.03323

 Side 1 forced transition at x/c =  1.0000   34
 Side 2  free  transition at x/c =  0.2135   11

  49   rms: 0.3459E+00   max: 0.4788E+01   C at   11  2   RLX: 0.313
       a =  2.000      CL =  0.5687
      Cm = -0.1438     CD =  0.04370   =>   CDf =  0.01094    CDp =  0.03276

 Side 1 forced transition at x/c =  1.0000   34
 Side 2  free  transition at x/c =  0.1533   10

  50   rms: 0.5969E-01   max: -.5053E+00   C at   10  2   RLX: 0.990
       a =  2.000      CL =  0.5854
      Cm = -0.1467     CD =  0.04270   =>   CDf =  0.01116    CDp =  0.03154

 Side 1 forced transition at x/c =  1.0000   34
 Side 2  free  transition at x/c =  0.2353   12

  51   rms: 0.9138E-01   max: 0.1113E+01   C at   12  2
       a =  2.000      CL =  0.5735
      Cm = -0.1446     CD =  0.04319   =>   CDf =  0.01097    CDp =  0.03222

 Side 1 forced transition at x/c =  1.0000   34
 Side 2  free  transition at x/c =  0.1599   10

  52   rms: 0.7965E-01   max: -.8255E+00   C at   10  2   RLX: 0.606
       a =  2.000      CL =  0.5834
      Cm = -0.1462     CD =  0.04278   =>   CDf =  0.01118    CDp =  0.03160

 Side 1 forced transition at x/c =  1.0000   34
 Side 2  free  transition at x/c =  0.2289   11

  53   rms: 0.1087E+00   max: -.1196E+01   C at   11  2   RLX: 0.418
       a =  2.000      CL =  0.5906
      Cm = -0.1471     CD =  0.04257   =>   CDf =  0.01098    CDp =  0.03159

 Side 1 forced transition at x/c =  1.0000   34
 Side 2  free  transition at x/c =  0.5256   17

  54   rms: 0.5248E+00   max: 0.6648E+01   C at   17  2   RLX: 0.226
       a =  2.000      CL =  0.5837
      Cm = -0.1465     CD =  0.04309   =>   CDf =  0.01004    CDp =  0.03305

 Side 1 forced transition at x/c =  1.0000   34
 Side 2  free  transition at x/c =  0.4668   16

  55   rms: 0.4683E+00   max: 0.6071E+01   C at   16  2   RLX: 0.247
       a =  2.000      CL =  0.5764
      Cm = -0.1454     CD =  0.04349   =>   CDf =  0.01018    CDp =  0.03331

 Side 1 forced transition at x/c =  1.0000   34
 Side 2  free  transition at x/c =  0.2679   12

  56   rms: 0.3429E+00   max: 0.4672E+01   C at   12  2   RLX: 0.321
       a =  2.000      CL =  0.5725
      Cm = -0.1447     CD =  0.04358   =>   CDf =  0.01071    CDp =  0.03287

 Side 1 forced transition at x/c =  1.0000   34
 Side 2  free  transition at x/c =  0.1719   10

  57   rms: 0.7681E-01   max: -.9131E+00   C at   10  2   RLX: 0.548
       a =  2.000      CL =  0.5815
      Cm = -0.1460     CD =  0.04303   =>   CDf =  0.01114    CDp =  0.03189

 Side 1 forced transition at x/c =  1.0000   34
 Side 2  free  transition at x/c =  0.2467   12

  58   rms: 0.1382E+00   max: 0.1870E+01   C at   12  2   RLX: 0.802
       a =  2.000      CL =  0.5751
      Cm = -0.1448     CD =  0.04319   =>   CDf =  0.01086    CDp =  0.03233

 Side 1 forced transition at x/c =  1.0000   34
 Side 2  free  transition at x/c =  0.1729   10

  59   rms: 0.9403E-01   max: -.1184E+01   C at   10  2   RLX: 0.422
       a =  2.000      CL =  0.5815
      Cm = -0.1459     CD =  0.04288   =>   CDf =  0.01114    CDp =  0.03174

 Side 1 forced transition at x/c =  1.0000   34
 Side 2  free  transition at x/c =  0.2306   12

  60   rms: 0.9800E-01   max: 0.1150E+01   C at   12  2
       a =  2.000      CL =  0.5713
      Cm = -0.1442     CD =  0.04328   =>   CDf =  0.01097    CDp =  0.03231

 Side 1 forced transition at x/c =  1.0000   34
 Side 2  free  transition at x/c =  0.1503   10

  61   rms: 0.7685E-01   max: -.5615E+00   C at   10  2   RLX: 0.890
       a =  2.000      CL =  0.5869
      Cm = -0.1469     CD =  0.04262   =>   CDf =  0.01119    CDp =  0.03143

 Side 1 forced transition at x/c =  1.0000   34
 Side 2  free  transition at x/c =  0.3054   13

  62   rms: 0.5606E+00   max: 0.7443E+01   C at   13  2   RLX: 0.202
       a =  2.000      CL =  0.5714
      Cm = -0.1448     CD =  0.04316   =>   CDf =  0.01084    CDp =  0.03232

 Side 1 forced transition at x/c =  1.0000   34
 Side 2  free  transition at x/c =  0.1618   10

  63   rms: 0.1191E+01   max: -.1652E+02   C at   10  2   RLX: 0.030
       a =  2.000      CL =  0.5750
      Cm = -0.1454     CD =  0.04302   =>   CDf =  0.01127    CDp =  0.03175

 Side 1 forced transition at x/c =  1.0000   34
 Side 2  free  transition at x/c =  0.1749   10

  64   rms: 0.6035E-01   max: -.5339E+00   C at   10  2   RLX: 0.936
       a =  2.000      CL =  0.5874
      Cm = -0.1468     CD =  0.04262   =>   CDf =  0.01124    CDp =  0.03138

 Side 1 forced transition at x/c =  1.0000   34
 Side 2  free  transition at x/c =  0.4140   15

  65   rms: 0.4919E+00   max: 0.6506E+01   C at   15  2   RLX: 0.231
       a =  2.000      CL =  0.5733
      Cm = -0.1450     CD =  0.04315   =>   CDf =  0.01047    CDp =  0.03267

 Side 1 forced transition at x/c =  1.0000   34
 Side 2  free  transition at x/c =  0.3201   13

  66   rms: 0.4672E+00   max: -.6026E+01   C at   13  2   RLX: 0.083
       a =  2.000      CL =  0.5773
      Cm = -0.1457     CD =  0.04296   =>   CDf =  0.01064    CDp =  0.03232

 Side 1 forced transition at x/c =  1.0000   34
 Side 2  free  transition at x/c =  0.4442   15

  67   rms: 0.4855E+00   max: -.6237E+01   C at   15  2   RLX: 0.080
       a =  2.000      CL =  0.5816
      Cm = -0.1463     CD =  0.04276   =>   CDf =  0.01030    CDp =  0.03246

 Side 1 forced transition at x/c =  1.0000   34
 Side 2 forced transition at x/c =  1.0000   29

  68   rms: 0.2668E-01   max: 0.1584E+00   D at   10  2
       a =  2.000      CL =  0.5850
      Cm = -0.1465     CD =  0.04116   =>   CDf =  0.00939    CDp =  0.03176

 Side 1 forced transition at x/c =  1.0000   34
 Side 2 forced transition at x/c =  1.0000   29

  69   rms: 0.6167E-02   max: 0.3446E-01   D at    8  2
       a =  2.000      CL =  0.5848
      Cm = -0.1465     CD =  0.04112   =>   CDf =  0.00938    CDp =  0.03175

 Side 1 forced transition at x/c =  1.0000   34
 Side 2  free  transition at x/c =  0.5018   16

  70   rms: 0.5114E+00   max: 0.6234E+01   C at   16  2   RLX: 0.241
       a =  2.000      CL =  0.5843
      Cm = -0.1470     CD =  0.04382   =>   CDf =  0.01000    CDp =  0.03382

 Side 1 forced transition at x/c =  1.0000   34
 Side 2  free  transition at x/c =  0.3908   14

  71   rms: 0.3485E+00   max: 0.4514E+01   C at   14  2   RLX: 0.332
       a =  2.000      CL =  0.5810
      Cm = -0.1464     CD =  0.04366   =>   CDf =  0.01036    CDp =  0.03330

 Side 1 forced transition at x/c =  1.0000   34
 Side 2  free  transition at x/c =  0.2552   12

  72   rms: 0.1853E+00   max: 0.2554E+01   C at   12  2   RLX: 0.587
       a =  2.000      CL =  0.5761
      Cm = -0.1453     CD =  0.04342   =>   CDf =  0.01078    CDp =  0.03263

 Side 1 forced transition at x/c =  1.0000   34
 Side 2  free  transition at x/c =  0.1737   10

  73   rms: 0.1061E+00   max: -.1355E+01   C at   10  2   RLX: 0.369
       a =  2.000      CL =  0.5821
      Cm = -0.1461     CD =  0.04305   =>   CDf =  0.01114    CDp =  0.03191

 Side 1 forced transition at x/c =  1.0000   34
 Side 2  free  transition at x/c =  0.2274   11

  74   rms: 0.1396E+00   max: -.1642E+01   C at   11  2   RLX: 0.305
       a =  2.000      CL =  0.5889
      Cm = -0.1469     CD =  0.04278   =>   CDf =  0.01098    CDp =  0.03181

 Side 1 forced transition at x/c =  1.0000   34
 Side 2  free  transition at x/c =  0.4827   16

  75   rms: 0.3960E+00   max: 0.4988E+01   C at   16  2   RLX: 0.301
       a =  2.000      CL =  0.5833
      Cm = -0.1462     CD =  0.04309   =>   CDf =  0.01011    CDp =  0.03298

 Side 1 forced transition at x/c =  1.0000   34
 Side 2  free  transition at x/c =  0.4259   15

  76   rms: 0.4448E+00   max: 0.5848E+01   C at   15  2   RLX: 0.257
       a =  2.000      CL =  0.5767
      Cm = -0.1452     CD =  0.04338   =>   CDf =  0.01031    CDp =  0.03307

 Side 1 forced transition at x/c =  1.0000   34
 Side 2  free  transition at x/c =  0.2326   12

  77   rms: 0.1287E+00   max: 0.1722E+01   C at   12  2   RLX: 0.871
       a =  2.000      CL =  0.5733
      Cm = -0.1446     CD =  0.04328   =>   CDf =  0.01086    CDp =  0.03242

 Side 1 forced transition at x/c =  1.0000   34
 Side 2  free  transition at x/c =  0.1634   10

  78   rms: 0.8522E-01   max: -.9614E+00   C at   10  2   RLX: 0.520
       a =  2.000      CL =  0.5818
      Cm = -0.1460     CD =  0.04286   =>   CDf =  0.01117    CDp =  0.03170

 Side 1 forced transition at x/c =  1.0000   34
 Side 2  free  transition at x/c =  0.2251   11

  79   rms: 0.1400E+00   max: -.1607E+01   C at   11  2   RLX: 0.311
       a =  2.000      CL =  0.5893
      Cm = -0.1469     CD =  0.04265   =>   CDf =  0.01097    CDp =  0.03167

 Side 1 forced transition at x/c =  1.0000   34
 Side 2  free  transition at x/c =  0.4868   16

  80   rms: 0.6438E+00   max: 0.7857E+01   C at   16  2   RLX: 0.191
       a =  2.000      CL =  0.5834
      Cm = -0.1461     CD =  0.04303   =>   CDf =  0.01009    CDp =  0.03295

 Side 1 forced transition at x/c =  1.0000   34
 Side 2  free  transition at x/c =  0.4325   15

  81   rms: 0.9285E+00   max: 0.1213E+02   C at   15  2   RLX: 0.124
       a =  2.000      CL =  0.5749
      Cm = -0.1448     CD =  0.04344   =>   CDf =  0.01031    CDp =  0.03313

 Side 1 forced transition at x/c =  1.0000   34
 Side 2  free  transition at x/c =  0.2179   11

  82   rms: 0.3278E+00   max: 0.4546E+01   C at   11  2   RLX: 0.330
       a =  2.000      CL =  0.5701
      Cm = -0.1440     CD =  0.04359   =>   CDf =  0.01091    CDp =  0.03268

 Side 1 forced transition at x/c =  1.0000   34
 Side 2  free  transition at x/c =  0.1587   10

  83   rms: 0.6218E-01   max: -.6160E+00   C at   10  2   RLX: 0.812
       a =  2.000      CL =  0.5835
      Cm = -0.1463     CD =  0.04283   =>   CDf =  0.01116    CDp =  0.03167

 Side 1 forced transition at x/c =  1.0000   34
 Side 2  free  transition at x/c =  0.2319   12

  84   rms: 0.9184E-01   max: 0.1078E+01   C at   12  2
       a =  2.000      CL =  0.5722
      Cm = -0.1444     CD =  0.04324   =>   CDf =  0.01098    CDp =  0.03226

 Side 1 forced transition at x/c =  1.0000   34
 Side 2  free  transition at x/c =  0.1539   10

  85   rms: 0.7572E-01   max: -.6424E+00   C at   10  2   RLX: 0.778
       a =  2.000      CL =  0.5854
      Cm = -0.1466     CD =  0.04269   =>   CDf =  0.01119    CDp =  0.03150

 Side 1 forced transition at x/c =  1.0000   34
 Side 2  free  transition at x/c =  0.2708   12

  86   rms: 0.1973E+00   max: 0.2675E+01   C at   12  2   RLX: 0.561
       a =  2.000      CL =  0.5796
      Cm = -0.1455     CD =  0.04298   =>   CDf =  0.01077    CDp =  0.03221

 Side 1 forced transition at x/c =  1.0000   34
 Side 2  free  transition at x/c =  0.1942   11

  87   rms: 0.1696E+00   max: 0.2193E+01   C at   11  2   RLX: 0.684
       a =  2.000      CL =  0.5685
      Cm = -0.1436     CD =  0.04340   =>   CDf =  0.01104    CDp =  0.03237

 Side 1 forced transition at x/c =  1.0000   34
 Side 2  free  transition at x/c =  0.1399    9

  88   rms: 0.3357E-01   max: -.3011E+00   D at   11  2
       a =  2.000      CL =  0.5777
      Cm = -0.1453     CD =  0.04301   =>   CDf =  0.01140    CDp =  0.03162

 Side 1 forced transition at x/c =  1.0000   34
 Side 2  free  transition at x/c =  0.1684   10

  89   rms: 0.6065E+00   max: -.8101E+01   C at   10  2   RLX: 0.062
       a =  2.000      CL =  0.5810
      Cm = -0.1460     CD =  0.04283   =>   CDf =  0.01119    CDp =  0.03164

 Side 1 forced transition at x/c =  1.0000   34
 Side 2  free  transition at x/c =  0.1836   11

  90   rms: 0.5755E-01   max: 0.4805E+00   C at   11  2
       a =  2.000      CL =  0.5699
      Cm = -0.1442     CD =  0.04331   =>   CDf =  0.01123    CDp =  0.03208

 Side 1 forced transition at x/c =  1.0000   34
 Side 2  free  transition at x/c =  0.1397    9

  91   rms: 0.2948E-01   max: 0.2056E+00   D at   10  2
       a =  2.000      CL =  0.5771
      Cm = -0.1452     CD =  0.04304   =>   CDf =  0.01144    CDp =  0.03160

 Side 1 forced transition at x/c =  1.0000   34
 Side 2  free  transition at x/c =  0.1656   10

  92   rms: 0.4529E+00   max: -.5849E+01   C at   10  2   RLX: 0.085
       a =  2.000      CL =  0.5812
      Cm = -0.1460     CD =  0.04282   =>   CDf =  0.01121    CDp =  0.03161

 Side 1 forced transition at x/c =  1.0000   34
 Side 2  free  transition at x/c =  0.1839   11

  93   rms: 0.5727E-01   max: 0.4750E+00   C at   11  2
       a =  2.000      CL =  0.5699
      Cm = -0.1442     CD =  0.04331   =>   CDf =  0.01123    CDp =  0.03208

 Side 1 forced transition at x/c =  1.0000   34
 Side 2  free  transition at x/c =  0.1399    9

  94   rms: 0.2921E-01   max: 0.2041E+00   D at   10  2
       a =  2.000      CL =  0.5771
      Cm = -0.1452     CD =  0.04304   =>   CDf =  0.01144    CDp =  0.03160

 Side 1 forced transition at x/c =  1.0000   34
 Side 2  free  transition at x/c =  0.1658   10

  95   rms: 0.4683E+00   max: -.6065E+01   C at   10  2   RLX: 0.082
       a =  2.000      CL =  0.5812
      Cm = -0.1460     CD =  0.04282   =>   CDf =  0.01121    CDp =  0.03161

 Side 1 forced transition at x/c =  1.0000   34
 Side 2  free  transition at x/c =  0.1839   11

  96   rms: 0.5727E-01   max: 0.4746E+00   C at   11  2
       a =  2.000      CL =  0.5699
      Cm = -0.1442     CD =  0.04331   =>   CDf =  0.01123    CDp =  0.03208

 Side 1 forced transition at x/c =  1.0000   34
 Side 2  free  transition at x/c =  0.1398    9

  97   rms: 0.2927E-01   max: 0.2044E+00   D at   10  2
       a =  2.000      CL =  0.5771
      Cm = -0.1452     CD =  0.04304   =>   CDf =  0.01144    CDp =  0.03160

 Side 1 forced transition at x/c =  1.0000   34
 Side 2  free  transition at x/c =  0.1657   10

  98   rms: 0.4627E+00   max: -.5986E+01   C at   10  2   RLX: 0.084
       a =  2.000      CL =  0.5812
      Cm = -0.1460     CD =  0.04282   =>   CDf =  0.01121    CDp =  0.03161

 Side 1 forced transition at x/c =  1.0000   34
 Side 2  free  transition at x/c =  0.1839   11

  99   rms: 0.5728E-01   max: 0.4749E+00   C at   11  2
       a =  2.000      CL =  0.5699
      Cm = -0.1442     CD =  0.04331   =>   CDf =  0.01123    CDp =  0.03208

 Side 1 forced transition at x/c =  1.0000   34
 Side 2  free  transition at x/c =  0.1398    9

 100   rms: 0.2925E-01   max: 0.2043E+00   D at   10  2
       a =  2.000      CL =  0.5771
      Cm = -0.1452     CD =  0.04304   =>   CDf =  0.01144    CDp =  0.03160

 Side 1 forced transition at x/c =  1.0000   34
 Side 2  free  transition at x/c =  0.1658   10

 101   rms: 0.4650E+00   max: -.6018E+01   C at   10  2   RLX: 0.083
       a =  2.000      CL =  0.5812
      Cm = -0.1460     CD =  0.04282   =>   CDf =  0.01121    CDp =  0.03161

 Side 1 forced transition at x/c =  1.0000   34
 Side 2  free  transition at x/c =  0.1839   11

 102   rms: 0.5727E-01   max: 0.4746E+00   C at   11  2
       a =  2.000      CL =  0.5699
      Cm = -0.1442     CD =  0.04331   =>   CDf =  0.01123    CDp =  0.03208

 Side 1 forced transition at x/c =  1.0000   34
 Side 2  free  transition at x/c =  0.1398    9

 103   rms: 0.2925E-01   max: 0.2043E+00   D at   10  2
       a =  2.000      CL =  0.5771
      Cm = -0.1452     CD =  0.04304   =>   CDf =  0.01144    CDp =  0.03160

 Side 1 forced transition at x/c =  1.0000   34
 Side 2  free  transition at x/c =  0.1657   10

 104   rms: 0.4643E+00   max: -.6009E+01   C at   10  2   RLX: 0.083
       a =  2.000      CL =  0.5812
      Cm = -0.1460     CD =  0.04282   =>   CDf =  0.01121    CDp =  0.03161

 Side 1 forced transition at x/c =  1.0000   34
 Side 2  free  transition at x/c =  0.1839   11

 105   rms: 0.5728E-01   max: 0.4748E+00   C at   11  2
       a =  2.000      CL =  0.5699
      Cm = -0.1442     CD =  0.04331   =>   CDf =  0.01123    CDp =  0.03208

 Side 1 forced transition at x/c =  1.0000   34
 Side 2  free  transition at x/c =  0.1398    9

 106   rms: 0.2925E-01   max: 0.2043E+00   D at   10  2
       a =  2.000      CL =  0.5771
      Cm = -0.1452     CD =  0.04304   =>   CDf =  0.01144    CDp =  0.03160

 Side 1 forced transition at x/c =  1.0000   34
 Side 2  free  transition at x/c =  0.1657   10

 107   rms: 0.4644E+00   max: -.6010E+01   C at   10  2   RLX: 0.083
       a =  2.000      CL =  0.5812
      Cm = -0.1460     CD =  0.04282   =>   CDf =  0.01121    CDp =  0.03161

 Side 1 forced transition at x/c =  1.0000   34
 Side 2  free  transition at x/c =  0.1839   11

 108   rms: 0.5727E-01   max: 0.4747E+00   C at   11  2
       a =  2.000      CL =  0.5699
      Cm = -0.1442     CD =  0.04331   =>   CDf =  0.01123    CDp =  0.03208

 Side 1 forced transition at x/c =  1.0000   34
 Side 2  free  transition at x/c =  0.1398    9

 109   rms: 0.2925E-01   max: 0.2043E+00   D at   10  2
       a =  2.000      CL =  0.5771
      Cm = -0.1452     CD =  0.04304   =>   CDf =  0.01144    CDp =  0.03160

 Side 1 forced transition at x/c =  1.0000   34
 Side 2  free  transition at x/c =  0.1657   10

 110   rms: 0.4646E+00   max: -.6013E+01   C at   10  2   RLX: 0.083
       a =  2.000      CL =  0.5812
      Cm = -0.1460     CD =  0.04282   =>   CDf =  0.01121    CDp =  0.03161

 Side 1 forced transition at x/c =  1.0000   34
 Side 2  free  transition at x/c =  0.1839   11

 111   rms: 0.5727E-01   max: 0.4746E+00   C at   11  2
       a =  2.000      CL =  0.5699
      Cm = -0.1442     CD =  0.04331   =>   CDf =  0.01123    CDp =  0.03208

 Side 1 forced transition at x/c =  1.0000   34
 Side 2  free  transition at x/c =  0.1398    9

 112   rms: 0.2925E-01   max: 0.2043E+00   D at   10  2
       a =  2.000      CL =  0.5771
      Cm = -0.1452     CD =  0.04304   =>   CDf =  0.01144    CDp =  0.03160

 Side 1 forced transition at x/c =  1.0000   34
 Side 2  free  transition at x/c =  0.1657   10

 113   rms: 0.4645E+00   max: -.6012E+01   C at   10  2   RLX: 0.083
       a =  2.000      CL =  0.5812
      Cm = -0.1460     CD =  0.04282   =>   CDf =  0.01121    CDp =  0.03161

 Side 1 forced transition at x/c =  1.0000   34
 Side 2  free  transition at x/c =  0.1839   11

 114   rms: 0.5728E-01   max: 0.4747E+00   C at   11  2
       a =  2.000      CL =  0.5699
      Cm = -0.1442     CD =  0.04331   =>   CDf =  0.01123    CDp =  0.03208

 Side 1 forced transition at x/c =  1.0000   34
 Side 2  free  transition at x/c =  0.1398    9

 115   rms: 0.2925E-01   max: 0.2044E+00   D at   10  2
       a =  2.000      CL =  0.5771
      Cm = -0.1452     CD =  0.04304   =>   CDf =  0.01144    CDp =  0.03160

 Side 1 forced transition at x/c =  1.0000   34
 Side 2  free  transition at x/c =  0.1657   10

 116   rms: 0.4642E+00   max: -.6008E+01   C at   10  2   RLX: 0.083
       a =  2.000      CL =  0.5812
      Cm = -0.1460     CD =  0.04282   =>   CDf =  0.01121    CDp =  0.03161

 Side 1 forced transition at x/c =  1.0000   34
 Side 2  free  transition at x/c =  0.1839   11

 117   rms: 0.5727E-01   max: 0.4747E+00   C at   11  2
       a =  2.000      CL =  0.5699
      Cm = -0.1442     CD =  0.04331   =>   CDf =  0.01123    CDp =  0.03208

 Side 1 forced transition at x/c =  1.0000   34
 Side 2  free  transition at x/c =  0.1398    9

 118   rms: 0.2925E-01   max: 0.2043E+00   D at   10  2
       a =  2.000      CL =  0.5771
      Cm = -0.1452     CD =  0.04304   =>   CDf =  0.01144    CDp =  0.03160

 Side 1 forced transition at x/c =  1.0000   34
 Side 2  free  transition at x/c =  0.1657   10

 119   rms: 0.4645E+00   max: -.6012E+01   C at   10  2   RLX: 0.083
       a =  2.000      CL =  0.5812
      Cm = -0.1460     CD =  0.04282   =>   CDf =  0.01121    CDp =  0.03161

 Side 1 forced transition at x/c =  1.0000   34
 Side 2  free  transition at x/c =  0.1839   11

 120   rms: 0.5727E-01   max: 0.4746E+00   C at   11  2
       a =  2.000      CL =  0.5699
      Cm = -0.1442     CD =  0.04331   =>   CDf =  0.01123    CDp =  0.03208

 Side 1 forced transition at x/c =  1.0000   34
 Side 2  free  transition at x/c =  0.1398    9

 121   rms: 0.2925E-01   max: 0.2043E+00   D at   10  2
       a =  2.000      CL =  0.5771
      Cm = -0.1452     CD =  0.04304   =>   CDf =  0.01144    CDp =  0.03160

 Side 1 forced transition at x/c =  1.0000   34
 Side 2  free  transition at x/c =  0.1657   10

 122   rms: 0.4644E+00   max: -.6011E+01   C at   10  2   RLX: 0.083
       a =  2.000      CL =  0.5812
      Cm = -0.1460     CD =  0.04282   =>   CDf =  0.01121    CDp =  0.03161

 Side 1 forced transition at x/c =  1.0000   34
 Side 2  free  transition at x/c =  0.1839   11

 123   rms: 0.5728E-01   max: 0.4748E+00   C at   11  2
       a =  2.000      CL =  0.5699
      Cm = -0.1442     CD =  0.04331   =>   CDf =  0.01123    CDp =  0.03208

 Side 1 forced transition at x/c =  1.0000   34
 Side 2  free  transition at x/c =  0.1398    9

 124   rms: 0.2925E-01   max: 0.2044E+00   D at   10  2
       a =  2.000      CL =  0.5771
      Cm = -0.1452     CD =  0.04304   =>   CDf =  0.01144    CDp =  0.03160

 Side 1 forced transition at x/c =  1.0000   34
 Side 2  free  transition at x/c =  0.1657   10

 125   rms: 0.4643E+00   max: -.6009E+01   C at   10  2   RLX: 0.083
       a =  2.000      CL =  0.5812
      Cm = -0.1460     CD =  0.04282   =>   CDf =  0.01121    CDp =  0.03161

 Side 1 forced transition at x/c =  1.0000   34
 Side 2  free  transition at x/c =  0.1839   11

 126   rms: 0.5727E-01   max: 0.4747E+00   C at   11  2
       a =  2.000      CL =  0.5699
      Cm = -0.1442     CD =  0.04331   =>   CDf =  0.01123    CDp =  0.03208

 Side 1 forced transition at x/c =  1.0000   34
 Side 2  free  transition at x/c =  0.1398    9

 127   rms: 0.2925E-01   max: 0.2043E+00   D at   10  2
       a =  2.000      CL =  0.5771
      Cm = -0.1452     CD =  0.04304   =>   CDf =  0.01144    CDp =  0.03160

 Side 1 forced transition at x/c =  1.0000   34
 Side 2  free  transition at x/c =  0.1657   10

 128   rms: 0.4646E+00   max: -.6013E+01   C at   10  2   RLX: 0.083
       a =  2.000      CL =  0.5812
      Cm = -0.1460     CD =  0.04282   =>   CDf =  0.01121    CDp =  0.03161

 Side 1 forced transition at x/c =  1.0000   34
 Side 2  free  transition at x/c =  0.1839   11

 129   rms: 0.5728E-01   max: 0.4747E+00   C at   11  2
       a =  2.000      CL =  0.5699
      Cm = -0.1442     CD =  0.04331   =>   CDf =  0.01123    CDp =  0.03208

 Side 1 forced transition at x/c =  1.0000   34
 Side 2  free  transition at x/c =  0.1398    9

 130   rms: 0.2925E-01   max: 0.2044E+00   D at   10  2
       a =  2.000      CL =  0.5771
      Cm = -0.1452     CD =  0.04304   =>   CDf =  0.01144    CDp =  0.03160

 Side 1 forced transition at x/c =  1.0000   34
 Side 2  free  transition at x/c =  0.1657   10

 131   rms: 0.4642E+00   max: -.6008E+01   C at   10  2   RLX: 0.083
       a =  2.000      CL =  0.5812
      Cm = -0.1460     CD =  0.04282   =>   CDf =  0.01121    CDp =  0.03161

 Side 1 forced transition at x/c =  1.0000   34
 Side 2  free  transition at x/c =  0.1839   11

 132   rms: 0.5728E-01   max: 0.4748E+00   C at   11  2
       a =  2.000      CL =  0.5699
      Cm = -0.1442     CD =  0.04331   =>   CDf =  0.01123    CDp =  0.03208

 Side 1 forced transition at x/c =  1.0000   34
 Side 2  free  transition at x/c =  0.1398    9

 133   rms: 0.2925E-01   max: 0.2043E+00   D at   10  2
       a =  2.000      CL =  0.5771
      Cm = -0.1452     CD =  0.04304   =>   CDf =  0.01144    CDp =  0.03160

 Side 1 forced transition at x/c =  1.0000   34
 Side 2  free  transition at x/c =  0.1657   10

 134   rms: 0.4643E+00   max: -.6009E+01   C at   10  2   RLX: 0.083
       a =  2.000      CL =  0.5812
      Cm = -0.1460     CD =  0.04282   =>   CDf =  0.01121    CDp =  0.03161

 Side 1 forced transition at x/c =  1.0000   34
 Side 2  free  transition at x/c =  0.1839   11

 135   rms: 0.5728E-01   max: 0.4748E+00   C at   11  2
       a =  2.000      CL =  0.5699
      Cm = -0.1442     CD =  0.04331   =>   CDf =  0.01123    CDp =  0.03208

 Side 1 forced transition at x/c =  1.0000   34
 Side 2  free  transition at x/c =  0.1398    9

 136   rms: 0.2926E-01   max: 0.2044E+00   D at   10  2
       a =  2.000      CL =  0.5771
      Cm = -0.1452     CD =  0.04304   =>   CDf =  0.01144    CDp =  0.03160

 Side 1 forced transition at x/c =  1.0000   34
 Side 2  free  transition at x/c =  0.1657   10

 137   rms: 0.4642E+00   max: -.6007E+01   C at   10  2   RLX: 0.083
       a =  2.000      CL =  0.5812
      Cm = -0.1460     CD =  0.04282   =>   CDf =  0.01121    CDp =  0.03161

 Side 1 forced transition at x/c =  1.0000   34
 Side 2  free  transition at x/c =  0.1839   11

 138   rms: 0.5727E-01   max: 0.4747E+00   C at   11  2
       a =  2.000      CL =  0.5699
      Cm = -0.1442     CD =  0.04331   =>   CDf =  0.01123    CDp =  0.03208

 Side 1 forced transition at x/c =  1.0000   34
 Side 2  free  transition at x/c =  0.1398    9

 139   rms: 0.2925E-01   max: 0.2043E+00   D at   10  2
       a =  2.000      CL =  0.5771
      Cm = -0.1452     CD =  0.04304   =>   CDf =  0.01144    CDp =  0.03160

 Side 1 forced transition at x/c =  1.0000   34
 Side 2  free  transition at x/c =  0.1657   10

 140   rms: 0.4646E+00   max: -.6013E+01   C at   10  2   RLX: 0.083
       a =  2.000      CL =  0.5812
      Cm = -0.1460     CD =  0.04282   =>   CDf =  0.01121    CDp =  0.03161

 Side 1 forced transition at x/c =  1.0000   34
 Side 2  free  transition at x/c =  0.1839   11

 141   rms: 0.5727E-01   max: 0.4747E+00   C at   11  2
       a =  2.000      CL =  0.5699
      Cm = -0.1442     CD =  0.04331   =>   CDf =  0.01123    CDp =  0.03208

 Side 1 forced transition at x/c =  1.0000   34
 Side 2  free  transition at x/c =  0.1398    9

 142   rms: 0.2925E-01   max: 0.2043E+00   D at   10  2
       a =  2.000      CL =  0.5771
      Cm = -0.1452     CD =  0.04304   =>   CDf =  0.01144    CDp =  0.03160

 Side 1 forced transition at x/c =  1.0000   34
 Side 2  free  transition at x/c =  0.1657   10

 143   rms: 0.4645E+00   max: -.6011E+01   C at   10  2   RLX: 0.083
       a =  2.000      CL =  0.5812
      Cm = -0.1460     CD =  0.04282   =>   CDf =  0.01121    CDp =  0.03161

 Side 1 forced transition at x/c =  1.0000   34
 Side 2  free  transition at x/c =  0.1839   11

 144   rms: 0.5727E-01   max: 0.4747E+00   C at   11  2
       a =  2.000      CL =  0.5699
      Cm = -0.1442     CD =  0.04331   =>   CDf =  0.01123    CDp =  0.03208

 Side 1 forced transition at x/c =  1.0000   34
 Side 2  free  transition at x/c =  0.1398    9

 145   rms: 0.2925E-01   max: 0.2043E+00   D at   10  2
       a =  2.000      CL =  0.5771
      Cm = -0.1452     CD =  0.04304   =>   CDf =  0.01144    CDp =  0.03160

 Side 1 forced transition at x/c =  1.0000   34
 Side 2  free  transition at x/c =  0.1657   10

 146   rms: 0.4646E+00   max: -.6013E+01   C at   10  2   RLX: 0.083
       a =  2.000      CL =  0.5812
      Cm = -0.1460     CD =  0.04282   =>   CDf =  0.01121    CDp =  0.03161

 Side 1 forced transition at x/c =  1.0000   34
 Side 2  free  transition at x/c =  0.1839   11

 147   rms: 0.5726E-01   max: 0.4746E+00   C at   11  2
       a =  2.000      CL =  0.5699
      Cm = -0.1442     CD =  0.04331   =>   CDf =  0.01123    CDp =  0.03208

 Side 1 forced transition at x/c =  1.0000   34
 Side 2  free  transition at x/c =  0.1398    9

 148   rms: 0.2925E-01   max: 0.2043E+00   D at   10  2
       a =  2.000      CL =  0.5771
      Cm = -0.1452     CD =  0.04304   =>   CDf =  0.01144    CDp =  0.03160

 Side 1 forced transition at x/c =  1.0000   34
 Side 2  free  transition at x/c =  0.1657   10

 149   rms: 0.4646E+00   max: -.6013E+01   C at   10  2   RLX: 0.083
       a =  2.000      CL =  0.5812
      Cm = -0.1460     CD =  0.04282   =>   CDf =  0.01121    CDp =  0.03161

 Side 1 forced transition at x/c =  1.0000   34
 Side 2  free  transition at x/c =  0.1839   11

 150   rms: 0.5727E-01   max: 0.4747E+00   C at   11  2
       a =  2.000      CL =  0.5699
      Cm = -0.1442     CD =  0.04331   =>   CDf =  0.01123    CDp =  0.03208

 Side 1 forced transition at x/c =  1.0000   34
 Side 2  free  transition at x/c =  0.1398    9

 151   rms: 0.2925E-01   max: 0.2043E+00   D at   10  2
       a =  2.000      CL =  0.5771
      Cm = -0.1452     CD =  0.04304   =>   CDf =  0.01144    CDp =  0.03160

 Side 1 forced transition at x/c =  1.0000   34
 Side 2  free  transition at x/c =  0.1657   10

 152   rms: 0.4643E+00   max: -.6009E+01   C at   10  2   RLX: 0.083
       a =  2.000      CL =  0.5812
      Cm = -0.1460     CD =  0.04282   =>   CDf =  0.01121    CDp =  0.03161

 Side 1 forced transition at x/c =  1.0000   34
 Side 2  free  transition at x/c =  0.1839   11

 153   rms: 0.5727E-01   max: 0.4747E+00   C at   11  2
       a =  2.000      CL =  0.5699
      Cm = -0.1442     CD =  0.04331   =>   CDf =  0.01123    CDp =  0.03208

 Side 1 forced transition at x/c =  1.0000   34
 Side 2  free  transition at x/c =  0.1398    9

 154   rms: 0.2925E-01   max: 0.2043E+00   D at   10  2
       a =  2.000      CL =  0.5771
      Cm = -0.1452     CD =  0.04304   =>   CDf =  0.01144    CDp =  0.03160

 Side 1 forced transition at x/c =  1.0000   34
 Side 2  free  transition at x/c =  0.1657   10

 155   rms: 0.4645E+00   max: -.6012E+01   C at   10  2   RLX: 0.083
       a =  2.000      CL =  0.5812
      Cm = -0.1460     CD =  0.04282   =>   CDf =  0.01121    CDp =  0.03161

 Side 1 forced transition at x/c =  1.0000   34
 Side 2  free  transition at x/c =  0.1839   11

 156   rms: 0.5727E-01   max: 0.4747E+00   C at   11  2
       a =  2.000      CL =  0.5699
      Cm = -0.1442     CD =  0.04331   =>   CDf =  0.01123    CDp =  0.03208

 Side 1 forced transition at x/c =  1.0000   34
 Side 2  free  transition at x/c =  0.1398    9

 157   rms: 0.2925E-01   max: 0.2043E+00   D at   10  2
       a =  2.000      CL =  0.5771
      Cm = -0.1452     CD =  0.04304   =>   CDf =  0.01144    CDp =  0.03160

 Side 1 forced transition at x/c =  1.0000   34
 Side 2  free  transition at x/c =  0.1657   10

 158   rms: 0.4643E+00   max: -.6008E+01   C at   10  2   RLX: 0.083
       a =  2.000      CL =  0.5812
      Cm = -0.1460     CD =  0.04282   =>   CDf =  0.01121    CDp =  0.03161

 Side 1 forced transition at x/c =  1.0000   34
 Side 2  free  transition at x/c =  0.1839   11

 159   rms: 0.5727E-01   max: 0.4747E+00   C at   11  2
       a =  2.000      CL =  0.5699
      Cm = -0.1442     CD =  0.04331   =>   CDf =  0.01123    CDp =  0.03208

 Side 1 forced transition at x/c =  1.0000   34
 Side 2  free  transition at x/c =  0.1398    9

 160   rms: 0.2925E-01   max: 0.2043E+00   D at   10  2
       a =  2.000      CL =  0.5771
      Cm = -0.1452     CD =  0.04304   =>   CDf =  0.01144    CDp =  0.03160

 Side 1 forced transition at x/c =  1.0000   34
 Side 2  free  transition at x/c =  0.1657   10

 161   rms: 0.4646E+00   max: -.6012E+01   C at   10  2   RLX: 0.083
       a =  2.000      CL =  0.5812
      Cm = -0.1460     CD =  0.04282   =>   CDf =  0.01121    CDp =  0.03161

 Side 1 forced transition at x/c =  1.0000   34
 Side 2  free  transition at x/c =  0.1839   11

 162   rms: 0.5727E-01   max: 0.4747E+00   C at   11  2
       a =  2.000      CL =  0.5699
      Cm = -0.1442     CD =  0.04331   =>   CDf =  0.01123    CDp =  0.03208

 Side 1 forced transition at x/c =  1.0000   34
 Side 2  free  transition at x/c =  0.1398    9

 163   rms: 0.2925E-01   max: 0.2044E+00   D at   10  2
       a =  2.000      CL =  0.5771
      Cm = -0.1452     CD =  0.04304   =>   CDf =  0.01144    CDp =  0.03160

 Side 1 forced transition at x/c =  1.0000   34
 Side 2  free  transition at x/c =  0.1657   10

 164   rms: 0.4642E+00   max: -.6008E+01   C at   10  2   RLX: 0.083
       a =  2.000      CL =  0.5812
      Cm = -0.1460     CD =  0.04282   =>   CDf =  0.01121    CDp =  0.03161

 Side 1 forced transition at x/c =  1.0000   34
 Side 2  free  transition at x/c =  0.1839   11

 165   rms: 0.5728E-01   max: 0.4748E+00   C at   11  2
       a =  2.000      CL =  0.5699
      Cm = -0.1442     CD =  0.04331   =>   CDf =  0.01123    CDp =  0.03208

 Side 1 forced transition at x/c =  1.0000   34
 Side 2  free  transition at x/c =  0.1398    9

 166   rms: 0.2925E-01   max: 0.2043E+00   D at   10  2
       a =  2.000      CL =  0.5771
      Cm = -0.1452     CD =  0.04304   =>   CDf =  0.01144    CDp =  0.03160

 Side 1 forced transition at x/c =  1.0000   34
 Side 2  free  transition at x/c =  0.1657   10

 167   rms: 0.4646E+00   max: -.6013E+01   C at   10  2   RLX: 0.083
       a =  2.000      CL =  0.5812
      Cm = -0.1460     CD =  0.04282   =>   CDf =  0.01121    CDp =  0.03161

 Side 1 forced transition at x/c =  1.0000   34
 Side 2  free  transition at x/c =  0.1839   11

 168   rms: 0.5726E-01   max: 0.4746E+00   C at   11  2
       a =  2.000      CL =  0.5699
      Cm = -0.1442     CD =  0.04331   =>   CDf =  0.01123    CDp =  0.03208

 Side 1 forced transition at x/c =  1.0000   34
 Side 2  free  transition at x/c =  0.1398    9

 169   rms: 0.2925E-01   max: 0.2043E+00   D at   10  2
       a =  2.000      CL =  0.5771
      Cm = -0.1452     CD =  0.04304   =>   CDf =  0.01144    CDp =  0.03160

 Side 1 forced transition at x/c =  1.0000   34
 Side 2  free  transition at x/c =  0.1657   10

 170   rms: 0.4647E+00   max: -.6014E+01   C at   10  2   RLX: 0.083
       a =  2.000      CL =  0.5812
      Cm = -0.1460     CD =  0.04282   =>   CDf =  0.01121    CDp =  0.03161

 Side 1 forced transition at x/c =  1.0000   34
 Side 2  free  transition at x/c =  0.1839   11

 171   rms: 0.5728E-01   max: 0.4748E+00   C at   11  2
       a =  2.000      CL =  0.5699
      Cm = -0.1442     CD =  0.04331   =>   CDf =  0.01123    CDp =  0.03208

 Side 1 forced transition at x/c =  1.0000   34
 Side 2  free  transition at x/c =  0.1398    9

 172   rms: 0.2926E-01   max: 0.2044E+00   D at   10  2
       a =  2.000      CL =  0.5771
      Cm = -0.1452     CD =  0.04304   =>   CDf =  0.01144    CDp =  0.03160

 Side 1 forced transition at x/c =  1.0000   34
 Side 2  free  transition at x/c =  0.1657   10

 173   rms: 0.4644E+00   max: -.6011E+01   C at   10  2   RLX: 0.083
       a =  2.000      CL =  0.5812
      Cm = -0.1460     CD =  0.04282   =>   CDf =  0.01121    CDp =  0.03161

 Side 1 forced transition at x/c =  1.0000   34
 Side 2  free  transition at x/c =  0.1839   11

 174   rms: 0.5728E-01   max: 0.4748E+00   C at   11  2
       a =  2.000      CL =  0.5699
      Cm = -0.1442     CD =  0.04331   =>   CDf =  0.01123    CDp =  0.03208

 Side 1 forced transition at x/c =  1.0000   34
 Side 2  free  transition at x/c =  0.1398    9

 175   rms: 0.2926E-01   max: 0.2043E+00   D at   10  2
       a =  2.000      CL =  0.5771
      Cm = -0.1452     CD =  0.04304   =>   CDf =  0.01144    CDp =  0.03160

 Side 1 forced transition at x/c =  1.0000   34
 Side 2  free  transition at x/c =  0.1657   10

 176   rms: 0.4644E+00   max: -.6011E+01   C at   10  2   RLX: 0.083
       a =  2.000      CL =  0.5812
      Cm = -0.1460     CD =  0.04282   =>   CDf =  0.01121    CDp =  0.03161

 Side 1 forced transition at x/c =  1.0000   34
 Side 2  free  transition at x/c =  0.1839   11

 177   rms: 0.5727E-01   max: 0.4747E+00   C at   11  2
       a =  2.000      CL =  0.5699
      Cm = -0.1442     CD =  0.04331   =>   CDf =  0.01123    CDp =  0.03208

 Side 1 forced transition at x/c =  1.0000   34
 Side 2  free  transition at x/c =  0.1398    9

 178   rms: 0.2925E-01   max: 0.2043E+00   D at   10  2
       a =  2.000      CL =  0.5771
      Cm = -0.1452     CD =  0.04304   =>   CDf =  0.01144    CDp =  0.03160

 Side 1 forced transition at x/c =  1.0000   34
 Side 2  free  transition at x/c =  0.1657   10

 179   rms: 0.4644E+00   max: -.6011E+01   C at   10  2   RLX: 0.083
       a =  2.000      CL =  0.5812
      Cm = -0.1460     CD =  0.04282   =>   CDf =  0.01121    CDp =  0.03161

 Side 1 forced transition at x/c =  1.0000   34
 Side 2  free  transition at x/c =  0.1839   11

 180   rms: 0.5728E-01   max: 0.4748E+00   C at   11  2
       a =  2.000      CL =  0.5699
      Cm = -0.1442     CD =  0.04331   =>   CDf =  0.01123    CDp =  0.03208

 Side 1 forced transition at x/c =  1.0000   34
 Side 2  free  transition at x/c =  0.1398    9

 181   rms: 0.2925E-01   max: 0.2044E+00   D at   10  2
       a =  2.000      CL =  0.5771
      Cm = -0.1452     CD =  0.04304   =>   CDf =  0.01144    CDp =  0.03160

 Side 1 forced transition at x/c =  1.0000   34
 Side 2  free  transition at x/c =  0.1657   10

 182   rms: 0.4645E+00   max: -.6011E+01   C at   10  2   RLX: 0.083
       a =  2.000      CL =  0.5812
      Cm = -0.1460     CD =  0.04282   =>   CDf =  0.01121    CDp =  0.03161

 Side 1 forced transition at x/c =  1.0000   34
 Side 2  free  transition at x/c =  0.1839   11

 183   rms: 0.5727E-01   max: 0.4747E+00   C at   11  2
       a =  2.000      CL =  0.5699
      Cm = -0.1442     CD =  0.04331   =>   CDf =  0.01123    CDp =  0.03208

 Side 1 forced transition at x/c =  1.0000   34
 Side 2  free  transition at x/c =  0.1398    9

 184   rms: 0.2925E-01   max: 0.2043E+00   D at   10  2
       a =  2.000      CL =  0.5771
      Cm = -0.1452     CD =  0.04304   =>   CDf =  0.01144    CDp =  0.03160

 Side 1 forced transition at x/c =  1.0000   34
 Side 2  free  transition at x/c =  0.1657   10

 185   rms: 0.4644E+00   max: -.6010E+01   C at   10  2   RLX: 0.083
       a =  2.000      CL =  0.5812
      Cm = -0.1460     CD =  0.04282   =>   CDf =  0.01121    CDp =  0.03161

 Side 1 forced transition at x/c =  1.0000   34
 Side 2  free  transition at x/c =  0.1839   11

 186   rms: 0.5727E-01   max: 0.4746E+00   C at   11  2
       a =  2.000      CL =  0.5699
      Cm = -0.1442     CD =  0.04331   =>   CDf =  0.01123    CDp =  0.03208

 Side 1 forced transition at x/c =  1.0000   34
 Side 2  free  transition at x/c =  0.1398    9

 187   rms: 0.2925E-01   max: 0.2043E+00   D at   10  2
       a =  2.000      CL =  0.5771
      Cm = -0.1452     CD =  0.04304   =>   CDf =  0.01144    CDp =  0.03160

 Side 1 forced transition at x/c =  1.0000   34
 Side 2  free  transition at x/c =  0.1657   10

 188   rms: 0.4647E+00   max: -.6014E+01   C at   10  2   RLX: 0.083
       a =  2.000      CL =  0.5812
      Cm = -0.1460     CD =  0.04282   =>   CDf =  0.01121    CDp =  0.03161

 Side 1 forced transition at x/c =  1.0000   34
 Side 2  free  transition at x/c =  0.1839   11

 189   rms: 0.5727E-01   max: 0.4746E+00   C at   11  2
       a =  2.000      CL =  0.5699
      Cm = -0.1442     CD =  0.04331   =>   CDf =  0.01123    CDp =  0.03208

 Side 1 forced transition at x/c =  1.0000   34
 Side 2  free  transition at x/c =  0.1398    9

 190   rms: 0.2925E-01   max: 0.2043E+00   D at   10  2
       a =  2.000      CL =  0.5771
      Cm = -0.1452     CD =  0.04304   =>   CDf =  0.01144    CDp =  0.03160

 Side 1 forced transition at x/c =  1.0000   34
 Side 2  free  transition at x/c =  0.1657   10

 191   rms: 0.4644E+00   max: -.6011E+01   C at   10  2   RLX: 0.083
       a =  2.000      CL =  0.5812
      Cm = -0.1460     CD =  0.04282   =>   CDf =  0.01121    CDp =  0.03161

 Side 1 forced transition at x/c =  1.0000   34
 Side 2  free  transition at x/c =  0.1839   11

 192   rms: 0.5727E-01   max: 0.4747E+00   C at   11  2
       a =  2.000      CL =  0.5699
      Cm = -0.1442     CD =  0.04331   =>   CDf =  0.01123    CDp =  0.03208

 Side 1 forced transition at x/c =  1.0000   34
 Side 2  free  transition at x/c =  0.1398    9

 193   rms: 0.2925E-01   max: 0.2043E+00   D at   10  2
       a =  2.000      CL =  0.5771
      Cm = -0.1452     CD =  0.04304   =>   CDf =  0.01144    CDp =  0.03160

 Side 1 forced transition at x/c =  1.0000   34
 Side 2  free  transition at x/c =  0.1657   10

 194   rms: 0.4644E+00   max: -.6010E+01   C at   10  2   RLX: 0.083
       a =  2.000      CL =  0.5812
      Cm = -0.1460     CD =  0.04282   =>   CDf =  0.01121    CDp =  0.03161

 Side 1 forced transition at x/c =  1.0000   34
 Side 2  free  transition at x/c =  0.1839   11

 195   rms: 0.5727E-01   max: 0.4747E+00   C at   11  2
       a =  2.000      CL =  0.5699
      Cm = -0.1442     CD =  0.04331   =>   CDf =  0.01123    CDp =  0.03208

 Side 1 forced transition at x/c =  1.0000   34
 Side 2  free  transition at x/c =  0.1398    9

 196   rms: 0.2925E-01   max: 0.2043E+00   D at   10  2
       a =  2.000      CL =  0.5771
      Cm = -0.1452     CD =  0.04304   =>   CDf =  0.01144    CDp =  0.03160

 Side 1 forced transition at x/c =  1.0000   34
 Side 2  free  transition at x/c =  0.1657   10

 197   rms: 0.4647E+00   max: -.6014E+01   C at   10  2   RLX: 0.083
       a =  2.000      CL =  0.5812
      Cm = -0.1460     CD =  0.04282   =>   CDf =  0.01121    CDp =  0.03161

 Side 1 forced transition at x/c =  1.0000   34
 Side 2  free  transition at x/c =  0.1839   11

 198   rms: 0.5727E-01   max: 0.4746E+00   C at   11  2
       a =  2.000      CL =  0.5699
      Cm = -0.1442     CD =  0.04331   =>   CDf =  0.01123    CDp =  0.03208

 Side 1 forced transition at x/c =  1.0000   34
 Side 2  free  transition at x/c =  0.1398    9

 199   rms: 0.2925E-01   max: 0.2043E+00   D at   10  2
       a =  2.000      CL =  0.5771
      Cm = -0.1452     CD =  0.04304   =>   CDf =  0.01144    CDp =  0.03160

 Side 1 forced transition at x/c =  1.0000   34
 Side 2  free  transition at x/c =  0.1657   10

 200   rms: 0.4645E+00   max: -.6012E+01   C at   10  2   RLX: 0.083
       a =  2.000      CL =  0.5812
      Cm = -0.1460     CD =  0.04282   =>   CDf =  0.01121    CDp =  0.03161

 Side 1 forced transition at x/c =  1.0000   34
 Side 2  free  transition at x/c =  0.1839   11

 201   rms: 0.5727E-01   max: 0.4747E+00   C at   11  2
       a =  2.000      CL =  0.5699
      Cm = -0.1442     CD =  0.04331   =>   CDf =  0.01123    CDp =  0.03208

 Side 1 forced transition at x/c =  1.0000   34
 Side 2  free  transition at x/c =  0.1398    9

 202   rms: 0.2925E-01   max: 0.2043E+00   D at   10  2
       a =  2.000      CL =  0.5771
      Cm = -0.1452     CD =  0.04304   =>   CDf =  0.01144    CDp =  0.03160

 Side 1 forced transition at x/c =  1.0000   34
 Side 2  free  transition at x/c =  0.1657   10

 203   rms: 0.4646E+00   max: -.6013E+01   C at   10  2   RLX: 0.083
       a =  2.000      CL =  0.5812
      Cm = -0.1460     CD =  0.04282   =>   CDf =  0.01121    CDp =  0.03161

 Side 1 forced transition at x/c =  1.0000   34
 Side 2  free  transition at x/c =  0.1839   11

 204   rms: 0.5728E-01   max: 0.4748E+00   C at   11  2
       a =  2.000      CL =  0.5699
      Cm = -0.1442     CD =  0.04331   =>   CDf =  0.01123    CDp =  0.03208

 Side 1 forced transition at x/c =  1.0000   34
 Side 2  free  transition at x/c =  0.1398    9

 205   rms: 0.2926E-01   max: 0.2044E+00   D at   10  2
       a =  2.000      CL =  0.5771
      Cm = -0.1452     CD =  0.04304   =>   CDf =  0.01144    CDp =  0.03160

 Side 1 forced transition at x/c =  1.0000   34
 Side 2  free  transition at x/c =  0.1657   10

 206   rms: 0.4642E+00   max: -.6007E+01   C at   10  2   RLX: 0.083
       a =  2.000      CL =  0.5812
      Cm = -0.1460     CD =  0.04282   =>   CDf =  0.01121    CDp =  0.03161

 Side 1 forced transition at x/c =  1.0000   34
 Side 2  free  transition at x/c =  0.1839   11

 207   rms: 0.5728E-01   max: 0.4748E+00   C at   11  2
       a =  2.000      CL =  0.5699
      Cm = -0.1442     CD =  0.04331   =>   CDf =  0.01123    CDp =  0.03208

 Side 1 forced transition at x/c =  1.0000   34
 Side 2  free  transition at x/c =  0.1398    9

 208   rms: 0.2925E-01   max: 0.2043E+00   D at   10  2
       a =  2.000      CL =  0.5771
      Cm = -0.1452     CD =  0.04304   =>   CDf =  0.01144    CDp =  0.03160

 Side 1 forced transition at x/c =  1.0000   34
 Side 2  free  transition at x/c =  0.1657   10

 209   rms: 0.4643E+00   max: -.6009E+01   C at   10  2   RLX: 0.083
       a =  2.000      CL =  0.5812
      Cm = -0.1460     CD =  0.04282   =>   CDf =  0.01121    CDp =  0.03161

 Side 1 forced transition at x/c =  1.0000   34
 Side 2  free  transition at x/c =  0.1839   11

 210   rms: 0.5727E-01   max: 0.4747E+00   C at   11  2
       a =  2.000      CL =  0.5699
      Cm = -0.1442     CD =  0.04331   =>   CDf =  0.01123    CDp =  0.03208

 Side 1 forced transition at x/c =  1.0000   34
 Side 2  free  transition at x/c =  0.1398    9

 211   rms: 0.2925E-01   max: 0.2043E+00   D at   10  2
       a =  2.000      CL =  0.5771
      Cm = -0.1452     CD =  0.04304   =>   CDf =  0.01144    CDp =  0.03160

 Side 1 forced transition at x/c =  1.0000   34
 Side 2  free  transition at x/c =  0.1657   10

 212   rms: 0.4643E+00   max: -.6010E+01   C at   10  2   RLX: 0.083
       a =  2.000      CL =  0.5812
      Cm = -0.1460     CD =  0.04282   =>   CDf =  0.01121    CDp =  0.03161

 Side 1 forced transition at x/c =  1.0000   34
 Side 2  free  transition at x/c =  0.1839   11

 213   rms: 0.5727E-01   max: 0.4747E+00   C at   11  2
       a =  2.000      CL =  0.5699
      Cm = -0.1442     CD =  0.04331   =>   CDf =  0.01123    CDp =  0.03208

 Side 1 forced transition at x/c =  1.0000   34
 Side 2  free  transition at x/c =  0.1398    9

 214   rms: 0.2925E-01   max: 0.2043E+00   D at   10  2
       a =  2.000      CL =  0.5771
      Cm = -0.1452     CD =  0.04304   =>   CDf =  0.01144    CDp =  0.03160

 Side 1 forced transition at x/c =  1.0000   34
 Side 2  free  transition at x/c =  0.1657   10

 215   rms: 0.4645E+00   max: -.6012E+01   C at   10  2   RLX: 0.083
       a =  2.000      CL =  0.5812
      Cm = -0.1460     CD =  0.04282   =>   CDf =  0.01121    CDp =  0.03161

 Side 1 forced transition at x/c =  1.0000   34
 Side 2  free  transition at x/c =  0.1839   11

 216   rms: 0.5727E-01   max: 0.4747E+00   C at   11  2
       a =  2.000      CL =  0.5699
      Cm = -0.1442     CD =  0.04331   =>   CDf =  0.01123    CDp =  0.03208

 Side 1 forced transition at x/c =  1.0000   34
 Side 2  free  transition at x/c =  0.1398    9

 217   rms: 0.2925E-01   max: 0.2043E+00   D at   10  2
       a =  2.000      CL =  0.5771
      Cm = -0.1452     CD =  0.04304   =>   CDf =  0.01144    CDp =  0.03160

 Side 1 forced transition at x/c =  1.0000   34
 Side 2  free  transition at x/c =  0.1657   10

 218   rms: 0.4645E+00   max: -.6012E+01   C at   10  2   RLX: 0.083
       a =  2.000      CL =  0.5812
      Cm = -0.1460     CD =  0.04282   =>   CDf =  0.01121    CDp =  0.03161

 Side 1 forced transition at x/c =  1.0000   34
 Side 2  free  transition at x/c =  0.1839   11

 219   rms: 0.5727E-01   max: 0.4747E+00   C at   11  2
       a =  2.000      CL =  0.5699
      Cm = -0.1442     CD =  0.04331   =>   CDf =  0.01123    CDp =  0.03208

 Side 1 forced transition at x/c =  1.0000   34
 Side 2  free  transition at x/c =  0.1398    9

 220   rms: 0.2925E-01   max: 0.2043E+00   D at   10  2
       a =  2.000      CL =  0.5771
      Cm = -0.1452     CD =  0.04304   =>   CDf =  0.01144    CDp =  0.03160

 Side 1 forced transition at x/c =  1.0000   34
 Side 2  free  transition at x/c =  0.1657   10

 221   rms: 0.4642E+00   max: -.6008E+01   C at   10  2   RLX: 0.083
       a =  2.000      CL =  0.5812
      Cm = -0.1460     CD =  0.04282   =>   CDf =  0.01121    CDp =  0.03161

 Side 1 forced transition at x/c =  1.0000   34
 Side 2  free  transition at x/c =  0.1839   11

 222   rms: 0.5728E-01   max: 0.4748E+00   C at   11  2
       a =  2.000      CL =  0.5699
      Cm = -0.1442     CD =  0.04331   =>   CDf =  0.01123    CDp =  0.03208

 Side 1 forced transition at x/c =  1.0000   34
 Side 2  free  transition at x/c =  0.1398    9

 223   rms: 0.2925E-01   max: 0.2043E+00   D at   10  2
       a =  2.000      CL =  0.5771
      Cm = -0.1452     CD =  0.04304   =>   CDf =  0.01144    CDp =  0.03160

 Side 1 forced transition at x/c =  1.0000   34
 Side 2  free  transition at x/c =  0.1657   10

 224   rms: 0.4645E+00   max: -.6011E+01   C at   10  2   RLX: 0.083
       a =  2.000      CL =  0.5812
      Cm = -0.1460     CD =  0.04282   =>   CDf =  0.01121    CDp =  0.03161

 Side 1 forced transition at x/c =  1.0000   34
 Side 2  free  transition at x/c =  0.1839   11

 225   rms: 0.5727E-01   max: 0.4747E+00   C at   11  2
       a =  2.000      CL =  0.5699
      Cm = -0.1442     CD =  0.04331   =>   CDf =  0.01123    CDp =  0.03208

 Side 1 forced transition at x/c =  1.0000   34
 Side 2  free  transition at x/c =  0.1398    9

 226   rms: 0.2925E-01   max: 0.2043E+00   D at   10  2
       a =  2.000      CL =  0.5771
      Cm = -0.1452     CD =  0.04304   =>   CDf =  0.01144    CDp =  0.03160

 Side 1 forced transition at x/c =  1.0000   34
 Side 2  free  transition at x/c =  0.1657   10

 227   rms: 0.4642E+00   max: -.6008E+01   C at   10  2   RLX: 0.083
       a =  2.000      CL =  0.5812
      Cm = -0.1460     CD =  0.04282   =>   CDf =  0.01121    CDp =  0.03161

 Side 1 forced transition at x/c =  1.0000   34
 Side 2  free  transition at x/c =  0.1839   11

 228   rms: 0.5728E-01   max: 0.4748E+00   C at   11  2
       a =  2.000      CL =  0.5699
      Cm = -0.1442     CD =  0.04331   =>   CDf =  0.01123    CDp =  0.03208

 Side 1 forced transition at x/c =  1.0000   34
 Side 2  free  transition at x/c =  0.1398    9

 229   rms: 0.2925E-01   max: 0.2043E+00   D at   10  2
       a =  2.000      CL =  0.5771
      Cm = -0.1452     CD =  0.04304   =>   CDf =  0.01144    CDp =  0.03160

 Side 1 forced transition at x/c =  1.0000   34
 Side 2  free  transition at x/c =  0.1657   10

 230   rms: 0.4644E+00   max: -.6011E+01   C at   10  2   RLX: 0.083
       a =  2.000      CL =  0.5812
      Cm = -0.1460     CD =  0.04282   =>   CDf =  0.01121    CDp =  0.03161

 Side 1 forced transition at x/c =  1.0000   34
 Side 2  free  transition at x/c =  0.1839   11

 231   rms: 0.5727E-01   max: 0.4747E+00   C at   11  2
       a =  2.000      CL =  0.5699
      Cm = -0.1442     CD =  0.04331   =>   CDf =  0.01123    CDp =  0.03208

 Side 1 forced transition at x/c =  1.0000   34
 Side 2  free  transition at x/c =  0.1398    9

 232   rms: 0.2925E-01   max: 0.2043E+00   D at   10  2
       a =  2.000      CL =  0.5771
      Cm = -0.1452     CD =  0.04304   =>   CDf =  0.01144    CDp =  0.03160

 Side 1 forced transition at x/c =  1.0000   34
 Side 2  free  transition at x/c =  0.1657   10

 233   rms: 0.4644E+00   max: -.6010E+01   C at   10  2   RLX: 0.083
       a =  2.000      CL =  0.5812
      Cm = -0.1460     CD =  0.04282   =>   CDf =  0.01121    CDp =  0.03161

 Side 1 forced transition at x/c =  1.0000   34
 Side 2  free  transition at x/c =  0.1839   11

 234   rms: 0.5728E-01   max: 0.4748E+00   C at   11  2
       a =  2.000      CL =  0.5699
      Cm = -0.1442     CD =  0.04331   =>   CDf =  0.01123    CDp =  0.03208

 Side 1 forced transition at x/c =  1.0000   34
 Side 2  free  transition at x/c =  0.1398    9

 235   rms: 0.2926E-01   max: 0.2044E+00   D at   10  2
       a =  2.000      CL =  0.5771
      Cm = -0.1452     CD =  0.04304   =>   CDf =  0.01144    CDp =  0.03160

 Side 1 forced transition at x/c =  1.0000   34
 Side 2  free  transition at x/c =  0.1657   10

 236   rms: 0.4644E+00   max: -.6011E+01   C at   10  2   RLX: 0.083
       a =  2.000      CL =  0.5812
      Cm = -0.1460     CD =  0.04282   =>   CDf =  0.01121    CDp =  0.03161

 Side 1 forced transition at x/c =  1.0000   34
 Side 2  free  transition at x/c =  0.1839   11

 237   rms: 0.5726E-01   max: 0.4746E+00   C at   11  2
       a =  2.000      CL =  0.5699
      Cm = -0.1442     CD =  0.04331   =>   CDf =  0.01123    CDp =  0.03208

 Side 1 forced transition at x/c =  1.0000   34
 Side 2  free  transition at x/c =  0.1398    9

 238   rms: 0.2925E-01   max: 0.2043E+00   D at   10  2
       a =  2.000      CL =  0.5771
      Cm = -0.1452     CD =  0.04304   =>   CDf =  0.01144    CDp =  0.03160

 Side 1 forced transition at x/c =  1.0000   34
 Side 2  free  transition at x/c =  0.1657   10

 239   rms: 0.4645E+00   max: -.6012E+01   C at   10  2   RLX: 0.083
       a =  2.000      CL =  0.5812
      Cm = -0.1460     CD =  0.04282   =>   CDf =  0.01121    CDp =  0.03161

 Side 1 forced transition at x/c =  1.0000   34
 Side 2  free  transition at x/c =  0.1839   11

 240   rms: 0.5728E-01   max: 0.4748E+00   C at   11  2
       a =  2.000      CL =  0.5699
      Cm = -0.1442     CD =  0.04331   =>   CDf =  0.01123    CDp =  0.03208

 Side 1 forced transition at x/c =  1.0000   34
 Side 2  free  transition at x/c =  0.1398    9

 241   rms: 0.2925E-01   max: 0.2044E+00   D at   10  2
       a =  2.000      CL =  0.5771
      Cm = -0.1452     CD =  0.04304   =>   CDf =  0.01144    CDp =  0.03160

 Side 1 forced transition at x/c =  1.0000   34
 Side 2  free  transition at x/c =  0.1657   10

 242   rms: 0.4642E+00   max: -.6008E+01   C at   10  2   RLX: 0.083
       a =  2.000      CL =  0.5812
      Cm = -0.1460     CD =  0.04282   =>   CDf =  0.01121    CDp =  0.03161

 Side 1 forced transition at x/c =  1.0000   34
 Side 2  free  transition at x/c =  0.1839   11

 243   rms: 0.5727E-01   max: 0.4747E+00   C at   11  2
       a =  2.000      CL =  0.5699
      Cm = -0.1442     CD =  0.04331   =>   CDf =  0.01123    CDp =  0.03208

 Side 1 forced transition at x/c =  1.0000   34
 Side 2  free  transition at x/c =  0.1398    9

 244   rms: 0.2925E-01   max: 0.2043E+00   D at   10  2
       a =  2.000      CL =  0.5771
      Cm = -0.1452     CD =  0.04304   =>   CDf =  0.01144    CDp =  0.03160

 Side 1 forced transition at x/c =  1.0000   34
 Side 2  free  transition at x/c =  0.1657   10

 245   rms: 0.4647E+00   max: -.6014E+01   C at   10  2   RLX: 0.083
       a =  2.000      CL =  0.5812
      Cm = -0.1460     CD =  0.04282   =>   CDf =  0.01121    CDp =  0.03161

 Side 1 forced transition at x/c =  1.0000   34
 Side 2  free  transition at x/c =  0.1839   11

 246   rms: 0.5727E-01   max: 0.4747E+00   C at   11  2
       a =  2.000      CL =  0.5699
      Cm = -0.1442     CD =  0.04331   =>   CDf =  0.01123    CDp =  0.03208

 Side 1 forced transition at x/c =  1.0000   34
 Side 2  free  transition at x/c =  0.1398    9

 247   rms: 0.2925E-01   max: 0.2043E+00   D at   10  2
       a =  2.000      CL =  0.5771
      Cm = -0.1452     CD =  0.04304   =>   CDf =  0.01144    CDp =  0.03160

 Side 1 forced transition at x/c =  1.0000   34
 Side 2  free  transition at x/c =  0.1657   10

 248   rms: 0.4645E+00   max: -.6012E+01   C at   10  2   RLX: 0.083
       a =  2.000      CL =  0.5812
      Cm = -0.1460     CD =  0.04282   =>   CDf =  0.01121    CDp =  0.03161

 Side 1 forced transition at x/c =  1.0000   34
 Side 2  free  transition at x/c =  0.1839   11

 249   rms: 0.5727E-01   max: 0.4747E+00   C at   11  2
       a =  2.000      CL =  0.5699
      Cm = -0.1442     CD =  0.04331   =>   CDf =  0.01123    CDp =  0.03208

 Side 1 forced transition at x/c =  1.0000   34
 Side 2  free  transition at x/c =  0.1398    9

 250   rms: 0.2925E-01   max: 0.2043E+00   D at   10  2
       a =  2.000      CL =  0.5771
      Cm = -0.1452     CD =  0.04304   =>   CDf =  0.01144    CDp =  0.03160

 Side 1 forced transition at x/c =  1.0000   34
 Side 2  free  transition at x/c =  0.1657   10

 251   rms: 0.4645E+00   max: -.6012E+01   C at   10  2   RLX: 0.083
       a =  2.000      CL =  0.5812
      Cm = -0.1460     CD =  0.04282   =>   CDf =  0.01121    CDp =  0.03161

 Side 1 forced transition at x/c =  1.0000   34
 Side 2  free  transition at x/c =  0.1839   11

 252   rms: 0.5727E-01   max: 0.4747E+00   C at   11  2
       a =  2.000      CL =  0.5699
      Cm = -0.1442     CD =  0.04331   =>   CDf =  0.01123    CDp =  0.03208

 Side 1 forced transition at x/c =  1.0000   34
 Side 2  free  transition at x/c =  0.1398    9

 253   rms: 0.2925E-01   max: 0.2043E+00   D at   10  2
       a =  2.000      CL =  0.5771
      Cm = -0.1452     CD =  0.04304   =>   CDf =  0.01144    CDp =  0.03160

 Side 1 forced transition at x/c =  1.0000   34
 Side 2  free  transition at x/c =  0.1657   10

 254   rms: 0.4644E+00   max: -.6011E+01   C at   10  2   RLX: 0.083
       a =  2.000      CL =  0.5812
      Cm = -0.1460     CD =  0.04282   =>   CDf =  0.01121    CDp =  0.03161

 Side 1 forced transition at x/c =  1.0000   34
 Side 2  free  transition at x/c =  0.1839   11

 255   rms: 0.5727E-01   max: 0.4747E+00   C at   11  2
       a =  2.000      CL =  0.5699
      Cm = -0.1442     CD =  0.04331   =>   CDf =  0.01123    CDp =  0.03208

 Side 1 forced transition at x/c =  1.0000   34
 Side 2  free  transition at x/c =  0.1398    9

 256   rms: 0.2925E-01   max: 0.2043E+00   D at   10  2
       a =  2.000      CL =  0.5771
      Cm = -0.1452     CD =  0.04304   =>   CDf =  0.01144    CDp =  0.03160

 Side 1 forced transition at x/c =  1.0000   34
 Side 2  free  transition at x/c =  0.1657   10

 257   rms: 0.4645E+00   max: -.6012E+01   C at   10  2   RLX: 0.083
       a =  2.000      CL =  0.5812
      Cm = -0.1460     CD =  0.04282   =>   CDf =  0.01121    CDp =  0.03161

 Side 1 forced transition at x/c =  1.0000   34
 Side 2  free  transition at x/c =  0.1839   11

 258   rms: 0.5727E-01   max: 0.4747E+00   C at   11  2
       a =  2.000      CL =  0.5699
      Cm = -0.1442     CD =  0.04331   =>   CDf =  0.01123    CDp =  0.03208

 Side 1 forced transition at x/c =  1.0000   34
 Side 2  free  transition at x/c =  0.1398    9

 259   rms: 0.2925E-01   max: 0.2043E+00   D at   10  2
       a =  2.000      CL =  0.5771
      Cm = -0.1452     CD =  0.04304   =>   CDf =  0.01144    CDp =  0.03160

 Side 1 forced transition at x/c =  1.0000   34
 Side 2  free  transition at x/c =  0.1657   10

 260   rms: 0.4643E+00   max: -.6009E+01   C at   10  2   RLX: 0.083
       a =  2.000      CL =  0.5812
      Cm = -0.1460     CD =  0.04282   =>   CDf =  0.01121    CDp =  0.03161

 Side 1 forced transition at x/c =  1.0000   34
 Side 2  free  transition at x/c =  0.1839   11

 261   rms: 0.5728E-01   max: 0.4748E+00   C at   11  2
       a =  2.000      CL =  0.5699
      Cm = -0.1442     CD =  0.04331   =>   CDf =  0.01123    CDp =  0.03208

 Side 1 forced transition at x/c =  1.0000   34
 Side 2  free  transition at x/c =  0.1398    9

 262   rms: 0.2925E-01   max: 0.2043E+00   D at   10  2
       a =  2.000      CL =  0.5771
      Cm = -0.1452     CD =  0.04304   =>   CDf =  0.01144    CDp =  0.03160

 Side 1 forced transition at x/c =  1.0000   34
 Side 2  free  transition at x/c =  0.1657   10

 263   rms: 0.4645E+00   max: -.6011E+01   C at   10  2   RLX: 0.083
       a =  2.000      CL =  0.5812
      Cm = -0.1460     CD =  0.04282   =>   CDf =  0.01121    CDp =  0.03161

 Side 1 forced transition at x/c =  1.0000   34
 Side 2  free  transition at x/c =  0.1839   11

 264   rms: 0.5727E-01   max: 0.4747E+00   C at   11  2
       a =  2.000      CL =  0.5699
      Cm = -0.1442     CD =  0.04331   =>   CDf =  0.01123    CDp =  0.03208

 Side 1 forced transition at x/c =  1.0000   34
 Side 2  free  transition at x/c =  0.1398    9

 265   rms: 0.2925E-01   max: 0.2043E+00   D at   10  2
       a =  2.000      CL =  0.5771
      Cm = -0.1452     CD =  0.04304   =>   CDf =  0.01144    CDp =  0.03160

 Side 1 forced transition at x/c =  1.0000   34
 Side 2  free  transition at x/c =  0.1657   10

 266   rms: 0.4642E+00   max: -.6007E+01   C at   10  2   RLX: 0.083
       a =  2.000      CL =  0.5812
      Cm = -0.1460     CD =  0.04282   =>   CDf =  0.01121    CDp =  0.03161

 Side 1 forced transition at x/c =  1.0000   34
 Side 2  free  transition at x/c =  0.1839   11

 267   rms: 0.5727E-01   max: 0.4747E+00   C at   11  2
       a =  2.000      CL =  0.5699
      Cm = -0.1442     CD =  0.04331   =>   CDf =  0.01123    CDp =  0.03208

 Side 1 forced transition at x/c =  1.0000   34
 Side 2  free  transition at x/c =  0.1398    9

 268   rms: 0.2925E-01   max: 0.2043E+00   D at   10  2
       a =  2.000      CL =  0.5771
      Cm = -0.1452     CD =  0.04304   =>   CDf =  0.01144    CDp =  0.03160

 Side 1 forced transition at x/c =  1.0000   34
 Side 2  free  transition at x/c =  0.1657   10

 269   rms: 0.4645E+00   max: -.6012E+01   C at   10  2   RLX: 0.083
       a =  2.000      CL =  0.5812
      Cm = -0.1460     CD =  0.04282   =>   CDf =  0.01121    CDp =  0.03161

 Side 1 forced transition at x/c =  1.0000   34
 Side 2  free  transition at x/c =  0.1839   11

 270   rms: 0.5727E-01   max: 0.4747E+00   C at   11  2
       a =  2.000      CL =  0.5699
      Cm = -0.1442     CD =  0.04331   =>   CDf =  0.01123    CDp =  0.03208

 Side 1 forced transition at x/c =  1.0000   34
 Side 2  free  transition at x/c =  0.1398    9

 271   rms: 0.2925E-01   max: 0.2043E+00   D at   10  2
       a =  2.000      CL =  0.5771
      Cm = -0.1452     CD =  0.04304   =>   CDf =  0.01144    CDp =  0.03160

 Side 1 forced transition at x/c =  1.0000   34
 Side 2  free  transition at x/c =  0.1657   10

 272   rms: 0.4645E+00   max: -.6012E+01   C at   10  2   RLX: 0.083
       a =  2.000      CL =  0.5812
      Cm = -0.1460     CD =  0.04282   =>   CDf =  0.01121    CDp =  0.03161

 Side 1 forced transition at x/c =  1.0000   34
 Side 2  free  transition at x/c =  0.1839   11

 273   rms: 0.5728E-01   max: 0.4748E+00   C at   11  2
       a =  2.000      CL =  0.5699
      Cm = -0.1442     CD =  0.04331   =>   CDf =  0.01123    CDp =  0.03208

 Side 1 forced transition at x/c =  1.0000   34
 Side 2  free  transition at x/c =  0.1398    9

 274   rms: 0.2926E-01   max: 0.2044E+00   D at   10  2
       a =  2.000      CL =  0.5771
      Cm = -0.1452     CD =  0.04304   =>   CDf =  0.01144    CDp =  0.03160

 Side 1 forced transition at x/c =  1.0000   34
 Side 2  free  transition at x/c =  0.1657   10

 275   rms: 0.4644E+00   max: -.6011E+01   C at   10  2   RLX: 0.083
       a =  2.000      CL =  0.5812
      Cm = -0.1460     CD =  0.04282   =>   CDf =  0.01121    CDp =  0.03161

 Side 1 forced transition at x/c =  1.0000   34
 Side 2  free  transition at x/c =  0.1839   11

 276   rms: 0.5727E-01   max: 0.4747E+00   C at   11  2
       a =  2.000      CL =  0.5699
      Cm = -0.1442     CD =  0.04331   =>   CDf =  0.01123    CDp =  0.03208

 Side 1 forced transition at x/c =  1.0000   34
 Side 2  free  transition at x/c =  0.1398    9

 277   rms: 0.2925E-01   max: 0.2043E+00   D at   10  2
       a =  2.000      CL =  0.5771
      Cm = -0.1452     CD =  0.04304   =>   CDf =  0.01144    CDp =  0.03160

 Side 1 forced transition at x/c =  1.0000   34
 Side 2  free  transition at x/c =  0.1657   10

 278   rms: 0.4644E+00   max: -.6010E+01   C at   10  2   RLX: 0.083
       a =  2.000      CL =  0.5812
      Cm = -0.1460     CD =  0.04282   =>   CDf =  0.01121    CDp =  0.03161

[...]
      Cm = -0.0403     CD =  0.10459   =>   CDf =  0.00583    CDp =  0.09876

 Side 1 forced transition at x/c =  1.0000   33
 Side 2  free  transition at x/c =  0.1046   10

  10   rms: 0.1843E-01   max: 0.6550E-01   D at   10  2
       a = -4.000      CL = -0.2812
      Cm = -0.0394     CD =  0.10199   =>   CDf =  0.00583    CDp =  0.09616

 Side 1 forced transition at x/c =  1.0000   33
 Side 2  free  transition at x/c =  0.1053   10

  11   rms: 0.2038E-01   max: 0.5698E-01   D at   10  2
       a = -4.000      CL = -0.2817
      Cm = -0.0387     CD =  0.10232   =>   CDf =  0.00578    CDp =  0.09655

 Side 1 forced transition at x/c =  1.0000   33
 Side 2  free  transition at x/c =  0.1051   10

  12   rms: 0.1761E-02   max: -.5672E-02   D at   24  2
       a = -4.000      CL = -0.2815
      Cm = -0.0387     CD =  0.10222   =>   CDf =  0.00576    CDp =  0.09645

 Side 1 forced transition at x/c =  1.0000   33
 Side 2  free  transition at x/c =  0.1051   10

  13   rms: 0.4687E-04   max: -.2582E-03   D at   37  2
       a = -4.000      CL = -0.2815
      Cm = -0.0387     CD =  0.10222   =>   CDf =  0.00577    CDp =  0.09645
 plradd ia,ip,cpol            6          32  2.85000005E-03

 Point added to stored polar  1
 Save file unspecified or not available
 Dump file unspecified or not available

.OPERva   c>  
.OPERva   c>  
.OPERva   c>   Calculating wake trajectory ...
 Calculating source influence matrix ...

 Solving BL system ...

 Side 1 forced transition at x/c =  1.0000   33
 Side 2  free  transition at x/c =  0.1051   10

   1   rms: 0.2819E+00   max: 0.1425E+01   T at   10  2   RLX: 0.730
       a = -5.000      CL = -0.2266
      Cm = -0.0597     CD =  0.13646   =>   CDf =  0.00577    CDp =  0.13069

 Side 1 forced transition at x/c =  1.0000   33
 Side 2  free  transition at x/c =  0.1025    9

   2   rms: 0.1092E+01   max: 0.4676E+01   D at   11  2   RLX: 0.321
       a = -5.000      CL = -0.1974
      Cm = -0.0852     CD =  0.04298   =>   CDf =  0.00991    CDp =  0.03307

 MRCHDU: Convergence failed at  11  side 2    Res =  0.3924E+01
 MRCHDU: Convergence failed at  12  side 2    Res =  0.2433E+02
 MRCHDU: Convergence failed at  13  side 2    Res =  0.1500E+02
 MRCHDU: Convergence failed at  14  side 2    Res =  0.2984E+02
 MRCHDU: Convergence failed at  15  side 2    Res =  0.1518E+03
 MRCHDU: Convergence failed at  16  side 2    Res =  0.1272E+02
 MRCHDU: Convergence failed at  17  side 2    Res =  0.2176E+02
 MRCHDU: Convergence failed at  18  side 2    Res =  0.1809E+02
 MRCHDU: Convergence failed at  19  side 2    Res =  0.2948E+02
 MRCHDU: Convergence failed at  20  side 2    Res =  0.3852E+02
 MRCHDU: Convergence failed at  21  side 2    Res =  0.4127E+02
 MRCHDU: Convergence failed at  22  side 2    Res =  0.2544E+02
 MRCHDU: Convergence failed at  23  side 2    Res =  0.8593E+03
 MRCHDU: Convergence failed at  24  side 2    Res =  0.4784E+02
 MRCHDU: Convergence failed at  25  side 2    Res =  0.2875E+02
 MRCHDU: Convergence failed at  26  side 2    Res =  0.1999E+02
 MRCHDU: Convergence failed at  27  side 2    Res =  0.3894E+02
 MRCHDU: Convergence failed at  28  side 2    Res =  0.2570E+02
 MRCHDU: Convergence failed at  29  side 2    Res =  0.1834E+02
 MRCHDU: Convergence failed at  30  side 2    Res =  0.2429E+02
 MRCHDU: Convergence failed at  39  side 2    Res =  0.2182E-01
 Side 1 forced transition at x/c =  1.0000   33
 Side 2  free  transition at x/c =  0.1037    9

   3   rms: 0.6630E+00   max: 0.2688E+01   D at   34  2   RLX: 0.558
       a = -5.000      CL = -0.5143
      Cm =  0.0727     CD =  0.04888   =>   CDf =  0.00559    CDp =  0.04329

 MRCHDU: Convergence failed at  34  side 2    Res =  0.2373E+02
 MRCHDU: Convergence failed at  35  side 2    Res =  0.2359E+01
 MRCHDU: Convergence failed at  36  side 2    Res =  0.2969E+02
 Side 1 forced transition at x/c =  1.0000   33
 Side 2  free  transition at x/c =  0.1041    9
 idif Ue xi dudx           1  0.45785299      1.00042820E-02   45.765701    
 Uenew xinew           2  2.91115977E-02  6.36100769E-04

   4   rms: 0.7775E+00   max: 0.3640E+01   D at   22  2   RLX: 0.412
       a = -5.000      CL = -0.6852
      Cm =  0.0456     CD =  0.11496   =>   CDf =  0.00697    CDp =  0.10799

 MRCHDU: Convergence failed at  25  side 2    Res =  0.1651E+01
 MRCHDU: Convergence failed at  26  side 2    Res =  0.1430E+01
 MRCHDU: Convergence failed at  27  side 2    Res =  0.2032E+01
 MRCHDU: Convergence failed at  28  side 2    Res =  0.3130E+01
 MRCHDU: Convergence failed at  29  side 2    Res =  0.5328E+01
 MRCHDU: Convergence failed at  30  side 2    Res =  0.8745E+01
 MRCHDU: Convergence failed at  31  side 2    Res =  0.8805E+01
 Side 1 forced transition at x/c =  1.0000   32
 Side 2  free  transition at x/c =  0.0666    9

   5   rms: 0.3410E+00   max: -.2218E+01   T at    2  2   RLX: 0.225
       a = -5.000      CL = -0.6782
      Cm =  0.0638     CD =  0.08961   =>   CDf =  0.00686    CDp =  0.08275

 Side 1 forced transition at x/c =  1.0000   33
 Side 2  free  transition at x/c =  0.0687    8

   6   rms: 0.5270E+00   max: -.5083E+01   D at    2  1   RLX: 0.098
       a = -5.000      CL = -0.6312
      Cm =  0.0523     CD =  0.08929   =>   CDf =  0.00602    CDp =  0.08327

 Side 1 forced transition at x/c =  1.0000   33
 Side 2  free  transition at x/c =  0.0693    8

   7   rms: 0.2317E+00   max: 0.1227E+01   T at    9  2   RLX: 0.836
       a = -5.000      CL = -0.3494
      Cm = -0.0190     CD =  0.11426   =>   CDf =  0.00601    CDp =  0.10826

 Side 1 forced transition at x/c =  1.0000   33
 Side 2  free  transition at x/c =  0.0713    8

   8   rms: 0.1958E+00   max: 0.6623E+00   D at   24  2
       a = -5.000      CL = -0.3350
      Cm = -0.0270     CD =  0.11785   =>   CDf =  0.00618    CDp =  0.11167

 Side 1 forced transition at x/c =  1.0000   33
 Side 2  free  transition at x/c =  0.1043    9

   9   rms: 0.1646E+00   max: 0.7818E+00   D at   10  2
       a = -5.000      CL = -0.3430
      Cm = -0.0217     CD =  0.11834   =>   CDf =  0.00591    CDp =  0.11242

 Side 1 forced transition at x/c =  1.0000   33
 Side 2  free  transition at x/c =  0.0934    9

  10   rms: 0.2364E+00   max: 0.8536E+00   D at   25  2
       a = -5.000      CL = -0.3996
      Cm = -0.0002     CD =  0.11461   =>   CDf =  0.00593    CDp =  0.10867

 Side 1 forced transition at x/c =  1.0000   33
 Side 2  free  transition at x/c =  0.0886    9

  11   rms: 0.4548E-01   max: -.2265E+00   T at    9  2
       a = -5.000      CL = -0.3485
      Cm = -0.0113     CD =  0.10569   =>   CDf =  0.00575    CDp =  0.09994

 Side 1 forced transition at x/c =  1.0000   33
 Side 2  free  transition at x/c =  0.0941    9

  12   rms: 0.7115E-02   max: -.4090E-01   D at   10  2
       a = -5.000      CL = -0.3482
      Cm = -0.0115     CD =  0.10592   =>   CDf =  0.00586    CDp =  0.10006

 Side 1 forced transition at x/c =  1.0000   33
 Side 2  free  transition at x/c =  0.0942    9

  13   rms: 0.2058E-03   max: -.1080E-02   D at   34  2
       a = -5.000      CL = -0.3482
      Cm = -0.0115     CD =  0.10592   =>   CDf =  0.00585    CDp =  0.10007

 Side 1 forced transition at x/c =  1.0000   33
 Side 2  free  transition at x/c =  0.0942    9

  14   rms: 0.1413E-05   max: -.5776E-05   T at   10  2
       a = -5.000      CL = -0.3482
      Cm = -0.0115     CD =  0.10593   =>   CDf =  0.00585    CDp =  0.10007
 plradd ia,ip,cpol            7          32  2.85000005E-03

 Point added to stored polar  1
 Save file unspecified or not available
 Dump file unspecified or not available

.OPERva   c>  
.OPERva   c>  
.OPERva   c>   Calculating wake trajectory ...
 Calculating source influence matrix ...

 Solving BL system ...

 Side 1 forced transition at x/c =  1.0000   33
 Side 2  free  transition at x/c =  0.0942    9

   1   rms: 0.8597E-01   max: 0.5658E+00   T at    9  2   RLX: 0.699
       a = -6.000      CL = -0.3519
      Cm = -0.0088     CD =  0.11100   =>   CDf =  0.00585    CDp =  0.10515

 Side 1 forced transition at x/c =  1.0000   33
 Side 2  free  transition at x/c =  0.0864    9

   2   rms: 0.1998E-01   max: 0.1026E+00   T at    9  2
       a = -6.000      CL = -0.3430
      Cm = -0.0132     CD =  0.11322   =>   CDf =  0.00608    CDp =  0.10714

 Side 1 forced transition at x/c =  1.0000   33
 Side 2  free  transition at x/c =  0.0843    9

   3   rms: 0.1676E-02   max: -.8434E-02   D at   10  2
       a = -6.000      CL = -0.3429
      Cm = -0.0134     CD =  0.11311   =>   CDf =  0.00615    CDp =  0.10696

 Side 1 forced transition at x/c =  1.0000   33
 Side 2  free  transition at x/c =  0.0843    9

   4   rms: 0.7727E-04   max: -.4139E-03   D at   37  2
       a = -6.000      CL = -0.3430
      Cm = -0.0134     CD =  0.11313   =>   CDf =  0.00615    CDp =  0.10698
 plradd ia,ip,cpol            8          32  2.85000005E-03

 Point added to stored polar  1
 Save file unspecified or not available
 Dump file unspecified or not available

.OPERva   c>  
.OPERva   c>  
.OPERva   c>   Calculating wake trajectory ...
 Calculating source influence matrix ...

 Solving BL system ...

 Side 1 forced transition at x/c =  1.0000   33
 Side 2  free  transition at x/c =  0.0843    9

   1   rms: 0.6948E-01   max: 0.4047E+00   T at    9  2   RLX: 0.872
       a = -7.000      CL = -0.3295
      Cm = -0.0188     CD =  0.11948   =>   CDf =  0.00614    CDp =  0.11333

 Side 1 forced transition at x/c =  1.0000   33
 Side 2  free  transition at x/c =  0.0777    9

   2   rms: 0.3915E-01   max: 0.2291E+00   T at    9  2
       a = -7.000      CL = -0.3435
      Cm = -0.0205     CD =  0.12462   =>   CDf =  0.00648    CDp =  0.11814

 Side 1 forced transition at x/c =  1.0000   33
 Side 2  free  transition at x/c =  0.0755    9

   3   rms: 0.1213E+00   max: -.6786E+00   T at    9  2   RLX: 0.737
       a = -7.000      CL = -0.3094
      Cm = -0.0211     CD =  0.11532   =>   CDf =  0.00641    CDp =  0.10890

 Side 1 forced transition at x/c =  1.0000   33
 Side 2  free  transition at x/c =  0.0788    9

   4   rms: 0.5719E-01   max: -.2776E+00   D at    9  2
       a = -7.000      CL = -0.3264
      Cm = -0.0210     CD =  0.12211   =>   CDf =  0.00657    CDp =  0.11554

 Side 1 forced transition at x/c =  1.0000   33
 Side 2  free  transition at x/c =  0.0771    9

   5   rms: 0.4752E-01   max: 0.2630E+00   T at    9  2
       a = -7.000      CL = -0.3533
      Cm = -0.0205     CD =  0.12689   =>   CDf =  0.00648    CDp =  0.12041

 Side 1 forced transition at x/c =  1.0000   33
 Side 2  free  transition at x/c =  0.0745    9

   6   rms: 0.6826E-01   max: -.3434E+00   T at    9  2
       a = -7.000      CL = -0.3370
      Cm = -0.0199     CD =  0.12098   =>   CDf =  0.00638    CDp =  0.11461

 Side 1 forced transition at x/c =  1.0000   33
 Side 2  free  transition at x/c =  0.0762    9

   7   rms: 0.8371E-01   max: 0.4571E+00   T at    9  2
       a = -7.000      CL = -0.3734
      Cm = -0.0198     CD =  0.13319   =>   CDf =  0.00645    CDp =  0.12674

 Side 1 forced transition at x/c =  1.0000   33
 Side 2  free  transition at x/c =  0.0728    8

   8   rms: 0.1087E+00   max: -.3942E+00   D at    9  2
       a = -7.000      CL = -0.3688
      Cm = -0.0232     CD =  0.14565   =>   CDf =  0.00641    CDp =  0.13924

 Side 1 forced transition at x/c =  1.0000   33
 Side 2  free  transition at x/c =  0.0728    8

   9   rms: 0.5558E-01   max: 0.2227E+00   D at   28  2
       a = -7.000      CL = -0.3707
      Cm = -0.0236     CD =  0.14089   =>   CDf =  0.00637    CDp =  0.13452

 Side 1 forced transition at x/c =  1.0000   33
 Side 2  free  transition at x/c =  0.0728    8

  10   rms: 0.5857E-02   max: 0.2855E-01   D at   37  2
       a = -7.000      CL = -0.3645
      Cm = -0.0253     CD =  0.13991   =>   CDf =  0.00633    CDp =  0.13358

 Side 1 forced transition at x/c =  1.0000   33
 Side 2  free  transition at x/c =  0.0728    8

  11   rms: 0.3211E-03   max: 0.9518E-03   T at    9  2
       a = -7.000      CL = -0.3645
      Cm = -0.0253     CD =  0.13991   =>   CDf =  0.00635    CDp =  0.13355

 Side 1 forced transition at x/c =  1.0000   33
 Side 2  free  transition at x/c =  0.0728    8

  12   rms: 0.3970E-04   max: 0.1240E-03   D at    9  2
       a = -7.000      CL = -0.3645
      Cm = -0.0253     CD =  0.13991   =>   CDf =  0.00635    CDp =  0.13355
 plradd ia,ip,cpol            9          32  2.85000005E-03

 Point added to stored polar  1
 Save file unspecified or not available
 Dump file unspecified or not available

.OPERva   c>  
.OPERva   c>  
.OPERva   c>   Calculating wake trajectory ...
 Calculating source influence matrix ...

 Solving BL system ...

 Side 1 forced transition at x/c =  1.0000   33
 Side 2  free  transition at x/c =  0.0728    8
 idif Ue xi dudx           1  0.44029930      1.00922585E-02   43.627430    
 Uenew xinew           2  3.15896273E-02  7.24077225E-04

   1   rms: 0.7480E-01   max: -.2711E+00   D at   25  1   RLX: 0.995
       a = -8.000      CL = -0.3727
      Cm = -0.0215     CD =  0.14655   =>   CDf =  0.00571    CDp =  0.14084

 Side 1 forced transition at x/c =  1.0000   32
 Side 2  free  transition at x/c =  0.0709    9

   2   rms: 0.1010E+00   max: -.3749E+00   T at    2  2
       a = -8.000      CL = -0.3485
      Cm = -0.0229     CD =  0.14260   =>   CDf =  0.00751    CDp =  0.13508

 Side 1 forced transition at x/c =  1.0000   33
 Side 2  free  transition at x/c =  0.0719    8
 idif Ue xi dudx           1  0.42743909      9.50622559E-03   44.964123    
 Uenew xinew           2  6.20704331E-03  1.38044357E-04

   3   rms: 0.1266E+00   max: 0.1382E+01   D at    2  1   RLX: 0.826
       a = -8.000      CL = -0.3511
      Cm = -0.0249     CD =  0.14286   =>   CDf =  0.00616    CDp =  0.13670

 Side 1 forced transition at x/c =  1.0000   32
 Side 2  free  transition at x/c =  0.0720    9

   4   rms: 0.1193E-01   max: 0.8830E-01   D at    2  2
       a = -8.000      CL = -0.3540
      Cm = -0.0247     CD =  0.14278   =>   CDf =  0.00656    CDp =  0.13621

 Side 1 forced transition at x/c =  1.0000   32
 Side 2  free  transition at x/c =  0.0723    9

   5   rms: 0.3089E-01   max: -.9865E-01   T at   10  2
       a = -8.000      CL = -0.3530
      Cm = -0.0248     CD =  0.14269   =>   CDf =  0.00654    CDp =  0.13616

 Side 1 forced transition at x/c =  1.0000   32
 Side 2  free  transition at x/c =  0.0721    9

   6   rms: 0.4095E-02   max: -.1294E-01   D at   39  2
       a = -8.000      CL = -0.3542
      Cm = -0.0247     CD =  0.14290   =>   CDf =  0.00654    CDp =  0.13635

 Side 1 forced transition at x/c =  1.0000   32
 Side 2  free  transition at x/c =  0.0721    9

   7   rms: 0.1372E-03   max: -.5548E-03   D at   38  2
       a = -8.000      CL = -0.3542
      Cm = -0.0247     CD =  0.14291   =>   CDf =  0.00653    CDp =  0.13637

 Side 1 forced transition at x/c =  1.0000   32
 Side 2  free  transition at x/c =  0.0721    9

   8   rms: 0.5631E-05   max: 0.2335E-04   D at   39  2
       a = -8.000      CL = -0.3542
      Cm = -0.0247     CD =  0.14291   =>   CDf =  0.00653    CDp =  0.13637
 plradd ia,ip,cpol           10          31  2.85000005E-03

 Point added to stored polar  1
 Save file unspecified or not available
 Dump file unspecified or not available

.OPERva   c>  
.OPERva   c>  
.OPERva   c>   Calculating wake trajectory ...
 Calculating source influence matrix ...

 Solving BL system ...

 Side 1 forced transition at x/c =  1.0000   32
 Side 2  free  transition at x/c =  0.0721    9

   1   rms: 0.8557E-01   max: -.3103E+00   D at   25  1
       a = -9.000      CL = -0.3179
      Cm = -0.0308     CD =  0.14232   =>   CDf =  0.00653    CDp =  0.13579

 Side 1 forced transition at x/c =  1.0000   32
 Side 2  free  transition at x/c =  0.0704    9

   2   rms: 0.2487E-01   max: 0.1245E+00   D at   10  2
       a = -9.000      CL = -0.3244
      Cm = -0.0288     CD =  0.14149   =>   CDf =  0.00705    CDp =  0.13443

 Side 1 forced transition at x/c =  1.0000   32
 Side 2  free  transition at x/c =  0.0704    9

   3   rms: 0.3971E-02   max: 0.1908E-01   D at   10  2
       a = -9.000      CL = -0.3245
      Cm = -0.0288     CD =  0.14109   =>   CDf =  0.00695    CDp =  0.13414

 Side 1 forced transition at x/c =  1.0000   32
 Side 2  free  transition at x/c =  0.0705    9

   4   rms: 0.1845E-03   max: 0.1041E-02   D at   39  2
       a = -9.000      CL = -0.3245
      Cm = -0.0288     CD =  0.14104   =>   CDf =  0.00695    CDp =  0.13409

 Side 1 forced transition at x/c =  1.0000   32
 Side 2  free  transition at x/c =  0.0705    9

   5   rms: 0.4442E-05   max: -.1889E-04   D at   10  2
       a = -9.000      CL = -0.3245
      Cm = -0.0288     CD =  0.14104   =>   CDf =  0.00695    CDp =  0.13409
 plradd ia,ip,cpol           11          31  2.85000005E-03

 Point added to stored polar  1
 Save file unspecified or not available
 Dump file unspecified or not available

.OPERva   c>  
.OPERva   c>  
.OPERva   c>   Calculating wake trajectory ...
 Calculating source influence matrix ...

 Solving BL system ...

 Side 1 forced transition at x/c =  1.0000   32
 Side 2  free  transition at x/c =  0.0705    9

   1   rms: 0.1019E+00   max: -.3817E+00   T at   10  2
       a =-10.000      CL = -0.3027
      Cm = -0.0306     CD =  0.13885   =>   CDf =  0.00694    CDp =  0.13191

 Side 1 forced transition at x/c =  1.0000   32
 Side 2  free  transition at x/c =  0.0667    9

   2   rms: 0.3948E-01   max: -.1515E+00   D at   10  2
       a =-10.000      CL = -0.3153
      Cm = -0.0300     CD =  0.14333   =>   CDf =  0.00741    CDp =  0.13592

 Side 1 forced transition at x/c =  1.0000   32
 Side 2  free  transition at x/c =  0.0656    9

   3   rms: 0.4639E-02   max: -.2023E-01   D at   39  2
       a =-10.000      CL = -0.3184
      Cm = -0.0297     CD =  0.14345   =>   CDf =  0.00729    CDp =  0.13617

 Side 1 forced transition at x/c =  1.0000   32
 Side 2  free  transition at x/c =  0.0654    9

   4   rms: 0.7572E-04   max: -.4934E-03   D at   39  2
       a =-10.000      CL = -0.3184
      Cm = -0.0297     CD =  0.14346   =>   CDf =  0.00726    CDp =  0.13620
 plradd ia,ip,cpol           12          31  2.85000005E-03

 Point added to stored polar  1
 Save file unspecified or not available
 Dump file unspecified or not available

.OPERva   c>  
.OPERva   c>  
.OPERva   c>  
        airfoil                    Re           Mach       Ncrit  XtripT  XtripB     file
       ------------------------  ------------  ----------  -----  ------  ------    -------------------
 >  1  panels                    5.000e4       0.000        9.00   1.000   1.000    

Enter polar output filename   s>  
.OPERva   c>  
 ==============================================================
 Polar  1
  
       XFOIL         Version 6.99
  
 Calculated polar for: panels                                          
  
 1 1 Reynolds number fixed          Mach number fixed         
  
 xtrf =   1.000 (top)        1.000 (bottom)  
 Mach =   0.000     Re =     0.050 e 6     Ncrit =   9.000
  
   alpha    CL        CD       CDp       CM     Top_Xtr  Bot_Xtr
  ------ -------- --------- --------- -------- -------- --------
   1.000   0.4508   0.04175   0.03152  -0.1398   1.0000   0.0956
   0.000   0.2614   0.04687   0.03877  -0.1207   1.0000   0.1434
  -1.000  -0.0772   0.05981   0.05412  -0.0553   1.0000   0.3465
  -2.000  -0.1508   0.07370   0.06814  -0.0538   1.0000   0.2339
  -3.000  -0.2787   0.08413   0.07865  -0.0257   1.0000   0.1235
  -4.000  -0.2815   0.10222   0.09645  -0.0387   1.0000   0.1051
  -5.000  -0.3482   0.10593   0.10007  -0.0115   1.0000   0.0942
  -6.000  -0.3430   0.11313   0.10698  -0.0134   1.0000   0.0843
  -7.000  -0.3645   0.13991   0.13355  -0.0253   1.0000   0.0728
  -8.000  -0.3542   0.14291   0.13637  -0.0247   1.0000   0.0721
  -9.000  -0.3245   0.14104   0.13409  -0.0288   1.0000   0.0705
 -10.000  -0.3184   0.14346   0.13620  -0.0297   1.0000   0.0654

.OPERva   c>  
 XFOIL   c>  