
 ===================================================
  XFOIL Version 6.99
  Copyright (C) 2000   Mark Drela, Harold Youngren

  This software comes with ABSOLUTELY NO WARRANTY,
    subject to the GNU General Public License.

  Caveat computor
 ===================================================

 File  xfoil.def  not found

   QUIT    Exit program

  .OPER    Direct operating point(s)
  .MDES    Complex mapping design routine
  .QDES    Surface speed design routine
  .GDES    Geometry design routine

   SAVE f  Write airfoil to labeled coordinate file
   PSAV f  Write airfoil to plain coordinate file
   ISAV f  Write airfoil to ISES coordinate file
   MSAV f  Write airfoil to MSES coordinate file
   REVE    Reverse written-airfoil node ordering

   LOAD f  Read buffer airfoil from coordinate file
   NACA i  Set NACA 4,5-digit airfoil and buffer airfoil
   INTE    Set buffer airfoil by interpolating two airfoils
   NORM    Buffer airfoil normalization toggle
   XYCM rr Change CM reference location, currently  0.25000 0.00000

   BEND    Display structural properties of current airfoil

   PCOP    Set current-airfoil panel nodes directly from buffer airfoil points
   PANE    Set current-airfoil panel nodes ( 160 ) based on curvature
  .PPAR    Show/change paneling

  .PLOP    Plotting options

   WDEF f  Write  current-settings file
   RDEF f  Reread current-settings file
   NAME s  Specify new airfoil name
   NINC    Increment name version number

   Z       Zoom    | (available in all menus)
   U       Unzoom  | 

 XFOIL   c>  
 Labeled airfoil file.  Name:  naca pippo                                      

 Number of input coordinate points: 250
 Clockwise ordering
 Max thickness =     0.094248  at x =   0.140
 Max camber    =     0.037242  at x =   0.410

  LE  x,y  =  -0.00004   0.03594  |   Chord =   1.00010
  TE  x,y  =   0.99953   0.00345  |

 Current airfoil nodes set from buffer airfoil nodes ( 250 )

 XFOIL   c>  
 Blunt trailing edge.  Gap =  0.00757

 Paneling parameters used...
   Number of panel nodes       160
   Panel bunching parameter    1.000
   TE/LE panel density ratio   0.150
   Refined-area/LE panel density ratio    0.200
   Top    side refined area x/c limits  1.000 1.000
   Bottom side refined area x/c limits  1.000 1.000

 XFOIL   c>   N    command not recognized.  Type a "?" for list

 XFOIL   c>   330  command not recognized.  Type a "?" for list

 XFOIL   c>  
 XFOIL   c>  
.OPERi   c>   Current iteration limit:          10

Enter new iteration limit   i>  
.OPERi   c>  
 XFOIL   c>  
 XFOIL   c>  
 XFOIL   c>  
.OPERi   c>  
.OPERi   c>  
.OPERi   c>  
 M  =    0.0000
 Re =     50000

.OPERv   c>  
 Polar  1 newly created for accumulation
 Airfoil archived with polar: naca pippo                                      

Enter  polar save filename  OR  <return> for no file   s>  
 Polar save file will NOT be written

Enter  polar dump filename  OR  <return> for no file   s>  
 Polar dump file will NOT be written

 Polar accumulation enabled

.OPERva   c>   Calculating unit vorticity distributions ...
 Calculating wake trajectory ...
 Calculating source influence matrix ...

 Solving BL system ...

 Initializing BL ...
    side            1  ...
 MRCHUE: Convergence failed at  68  side 1    Res =  0.1633E+04
    side            2  ...
 MRCHUE: Inverse mode at  17     Hk =   3.800
 MRCHUE: Inverse mode at  18     Hk =   4.232
 MRCHUE: Inverse mode at  22     Hk =   3.800
 MRCHUE: Inverse mode at  23     Hk =   4.256
 MRCHUE: Convergence failed at  24  side 2    Res =  0.2494E+01
 MRCHUE: Inverse mode at  25     Hk =   4.756
 MRCHUE: Convergence failed at  26  side 2    Res =  0.7053E+01
 MRCHUE: Inverse mode at  27     Hk =   5.299
 MRCHUE: Inverse mode at  28     Hk =   5.838
 MRCHUE: Convergence failed at  29  side 2    Res =  0.1296E+02
 MRCHUE: Inverse mode at  30     Hk =   6.469
 MRCHUE: Inverse mode at  31     Hk =   7.104
 MRCHUE: Inverse mode at  32     Hk =   7.742
 MRCHUE: Inverse mode at  33     Hk =   8.376
 MRCHUE: Inverse mode at  34     Hk =   9.007
 MRCHUE: Inverse mode at  35     Hk =   8.926
 MRCHUE: Inverse mode at  36     Hk =   6.418
 MRCHUE: Inverse mode at  37     Hk =   5.059
 MRCHUE: Inverse mode at  38     Hk =   4.186
 MRCHUE: Inverse mode at  39     Hk =   3.450
 MRCHUE: Convergence failed at  40  side 2    Res =  0.4183E+02
 MRCHUE: Inverse mode at  41     Hk =   2.708
 MRCHUE: Inverse mode at  42     Hk =   2.500
 MRCHUE: Inverse mode at  43     Hk =   2.500
 MRCHUE: Inverse mode at  44     Hk =   2.500
 MRCHUE: Inverse mode at  45     Hk =   2.500
 MRCHUE: Inverse mode at  46     Hk =   2.500
 MRCHUE: Inverse mode at  47     Hk =   2.500
 MRCHUE: Inverse mode at  48     Hk =   2.500
 MRCHUE: Inverse mode at  49     Hk =   2.500
 MRCHUE: Inverse mode at  50     Hk =   2.500
 MRCHUE: Inverse mode at  51     Hk =   2.500
 MRCHUE: Inverse mode at  52     Hk =   2.500
 MRCHUE: Inverse mode at  53     Hk =   2.500
 MRCHUE: Inverse mode at  54     Hk =   2.500
 MRCHUE: Inverse mode at  55     Hk =   2.500
 MRCHUE: Inverse mode at  56     Hk =   2.500
 MRCHUE: Inverse mode at  57     Hk =   2.500
 MRCHUE: Inverse mode at  58     Hk =   2.500
 MRCHUE: Inverse mode at  59     Hk =   2.500
 MRCHUE: Inverse mode at  60     Hk =   2.500
 MRCHUE: Inverse mode at  61     Hk =   2.500
 MRCHUE: Inverse mode at  62     Hk =   2.500
 MRCHUE: Inverse mode at  63     Hk =   2.500
 MRCHUE: Inverse mode at  64     Hk =   2.500
 MRCHUE: Inverse mode at  65     Hk =   2.500
 MRCHUE: Inverse mode at  66     Hk =   2.500
 MRCHUE: Inverse mode at  67     Hk =   2.500
 MRCHUE: Inverse mode at  68     Hk =   2.500
 MRCHUE: Inverse mode at  69     Hk =   2.500
 MRCHUE: Inverse mode at  70     Hk =   2.500
 MRCHUE: Inverse mode at  71     Hk =   2.500
 MRCHUE: Inverse mode at  72     Hk =   2.500
 MRCHUE: Inverse mode at  73     Hk =   2.500
 MRCHUE: Inverse mode at  82     Hk =   2.500
 MRCHUE: Inverse mode at  83     Hk =   2.500
 MRCHUE: Inverse mode at  84     Hk =   2.500
 MRCHUE: Inverse mode at  85     Hk =   2.500
 MRCHUE: Inverse mode at  86     Hk =   2.500
 MRCHUE: Inverse mode at  87     Hk =   2.500
 MRCHUE: Inverse mode at  88     Hk =   2.500
 MRCHUE: Inverse mode at  89     Hk =   2.500
 MRCHUE: Inverse mode at  90     Hk =   2.500
 MRCHUE: Inverse mode at  91     Hk =   2.500
 MRCHUE: Inverse mode at  92     Hk =   2.500
 MRCHUE: Inverse mode at  93     Hk =   2.500
 MRCHUE: Convergence failed at  94  side 2    Res =  0.4265E+01

 MRCHDU: Convergence failed at  68  side 1    Res =  0.2953E+04
 MRCHDU: Convergence failed at  26  side 2    Res =  0.4072E+01
 MRCHDU: Convergence failed at  27  side 2    Res =  0.2308E+01
 MRCHDU: Convergence failed at  28  side 2    Res =  0.2189E+01
 MRCHDU: Convergence failed at  29  side 2    Res =  0.4742E+01
 MRCHDU: Convergence failed at  30  side 2    Res =  0.5313E+01
 MRCHDU: Convergence failed at  31  side 2    Res =  0.7742E+01
 MRCHDU: Convergence failed at  32  side 2    Res =  0.2027E+02
 MRCHDU: Convergence failed at  33  side 2    Res =  0.2313E+02
 MRCHDU: Convergence failed at  34  side 2    Res =  0.9209E+01
 MRCHDU: Convergence failed at  35  side 2    Res =  0.5361E+01
 MRCHDU: Convergence failed at  36  side 2    Res =  0.4521E+02
 MRCHDU: Convergence failed at  37  side 2    Res =  0.2680E+02
 MRCHDU: Convergence failed at  38  side 2    Res =  0.7247E+01
 MRCHDU: Convergence failed at  39  side 2    Res =  0.1783E+02
 MRCHDU: Convergence failed at  40  side 2    Res =  0.1674E+03
 MRCHDU: Convergence failed at  41  side 2    Res =  0.8148E+03
 MRCHDU: Convergence failed at  42  side 2    Res =  0.3676E+02
 MRCHDU: Convergence failed at  43  side 2    Res =  0.1350E+02
 MRCHDU: Convergence failed at  44  side 2    Res =  0.8855E+03
 MRCHDU: Convergence failed at  45  side 2    Res =  0.2104E+02
 MRCHDU: Convergence failed at  46  side 2    Res =  0.4834E+05
 MRCHDU: Convergence failed at  47  side 2    Res =  0.9495E+01
 MRCHDU: Convergence failed at  48  side 2    Res =  0.1757E+03
 MRCHDU: Convergence failed at  49  side 2    Res =  0.1268E+03
 MRCHDU: Convergence failed at  50  side 2    Res =  0.5563E+02
 MRCHDU: Convergence failed at  51  side 2    Res =  0.4046E+02
 MRCHDU: Convergence failed at  52  side 2    Res =  0.3313E+02
 MRCHDU: Convergence failed at  53  side 2    Res =  0.2856E+02
 MRCHDU: Convergence failed at  54  side 2    Res =  0.2484E+02
 MRCHDU: Convergence failed at  55  side 2    Res =  0.2294E+02
 MRCHDU: Convergence failed at  56  side 2    Res =  0.2120E+02
 MRCHDU: Convergence failed at  57  side 2    Res =  0.1960E+02
 MRCHDU: Convergence failed at  58  side 2    Res =  0.1855E+02
 MRCHDU: Convergence failed at  59  side 2    Res =  0.1773E+02
 MRCHDU: Convergence failed at  60  side 2    Res =  0.1714E+02
 MRCHDU: Convergence failed at  61  side 2    Res =  0.1668E+02
 MRCHDU: Convergence failed at  62  side 2    Res =  0.1618E+02
 MRCHDU: Convergence failed at  63  side 2    Res =  0.1579E+02
 MRCHDU: Convergence failed at  64  side 2    Res =  0.1537E+02
 MRCHDU: Convergence failed at  65  side 2    Res =  0.1494E+02
 MRCHDU: Convergence failed at  66  side 2    Res =  0.1453E+02
 MRCHDU: Convergence failed at  67  side 2    Res =  0.1421E+02
 MRCHDU: Convergence failed at  68  side 2    Res =  0.1392E+02
 MRCHDU: Convergence failed at  69  side 2    Res =  0.1364E+02
 MRCHDU: Convergence failed at  70  side 2    Res =  0.1336E+02
 MRCHDU: Convergence failed at  71  side 2    Res =  0.1311E+02
 MRCHDU: Convergence failed at  72  side 2    Res =  0.1288E+02
 MRCHDU: Convergence failed at  73  side 2    Res =  0.1263E+02
 MRCHDU: Convergence failed at  74  side 2    Res =  0.2050E+02
 MRCHDU: Convergence failed at  75  side 2    Res =  0.3187E+02
 MRCHDU: Convergence failed at  76  side 2    Res =  0.1411E+02
 MRCHDU: Convergence failed at  77  side 2    Res =  0.1332E+02
 MRCHDU: Convergence failed at  78  side 2    Res =  0.1248E+02
 MRCHDU: Convergence failed at  79  side 2    Res =  0.1197E+02
 MRCHDU: Convergence failed at  80  side 2    Res =  0.1160E+02
 MRCHDU: Convergence failed at  81  side 2    Res =  0.1125E+02
 MRCHDU: Convergence failed at  82  side 2    Res =  0.1104E+02
 MRCHDU: Convergence failed at  83  side 2    Res =  0.1096E+02
 MRCHDU: Convergence failed at  84  side 2    Res =  0.1087E+02
 MRCHDU: Convergence failed at  85  side 2    Res =  0.1078E+02
 MRCHDU: Convergence failed at  86  side 2    Res =  0.1071E+02
 MRCHDU: Convergence failed at  87  side 2    Res =  0.1064E+02
 MRCHDU: Convergence failed at  88  side 2    Res =  0.1057E+02
 MRCHDU: Convergence failed at  89  side 2    Res =  0.1049E+02
 MRCHDU: Convergence failed at  90  side 2    Res =  0.1042E+02
 MRCHDU: Convergence failed at  91  side 2    Res =  0.1034E+02
 MRCHDU: Convergence failed at  92  side 2    Res =  0.1068E+02
 MRCHDU: Convergence failed at  93  side 2    Res =  0.1056E+02
 MRCHDU: Convergence failed at  94  side 2    Res =  0.9361E+01
 Side 1 forced transition at x/c =  0.9997   68
 Side 2  free  transition at x/c =  0.1163   36

   1   rms: 0.2617E+01   max: 0.7473E+01   D at   97  2   RLX: 0.152
       a =-14.000      CL = -6.8320
      Cm =  1.6034     CD =  0.00256   =>   CDf =  0.00619    CDp = -0.00363

 Side 1 forced transition at x/c =  0.9997   68
 Side 2 forced transition at x/c =  1.0003   94

   2   rms: 0.2367E+01   max: 0.2552E+01   D at   98  2   RLX: 0.090
       a =-14.000      CL = -6.0558
      Cm =  1.3927     CD =  0.00348   =>   CDf =  0.02514    CDp = -0.02166

 Side 1 forced transition at x/c =  0.9997   68
 Side 2  free  transition at x/c =  0.0970   35

   3   rms: 0.1885E+01   max: 0.1937E+01   D at   99  2   RLX: 0.100
       a =-14.000      CL = -5.3342
      Cm =  1.1746     CD =  0.00636   =>   CDf =  0.04028    CDp = -0.03392

 Side 1 forced transition at x/c =  0.9997   68
 Side 2  free  transition at x/c =  0.0930   34

   4   rms: 0.1693E+01   max: 0.1836E+01   D at  100  2   RLX: 0.116
       a =-14.000      CL = -4.6679
      Cm =  0.9706     CD =  0.00765   =>   CDf =  0.03570    CDp = -0.02805

 Side 1 forced transition at x/c =  0.9997   68
 Side 2  free  transition at x/c =  0.0913   34

   5   rms: 0.1537E+01   max: 0.1778E+01   D at  101  2   RLX: 0.137
       a =-14.000      CL = -4.0215
      Cm =  0.7722     CD =  0.00945   =>   CDf =  0.03193    CDp = -0.02248

 Side 1 forced transition at x/c =  0.9997   68
 Side 2  free  transition at x/c =  0.0911   34

   6   rms: 0.1392E+01   max: 0.1662E+01   D at  108  2   RLX: 0.167
       a =-14.000      CL = -3.3956
      Cm =  0.5801     CD =  0.01216   =>   CDf =  0.02909    CDp = -0.01694

 Side 1 forced transition at x/c =  0.9997   69
 Side 2  free  transition at x/c =  0.0926   33

   7   rms: 0.1335E+01   max: 0.1731E+01   D at  108  2   RLX: 0.213
       a =-14.000      CL = -2.7951
      Cm =  0.3969     CD =  0.01699   =>   CDf =  0.02366    CDp = -0.00667

 Side 1 forced transition at x/c =  0.9997   69
 Side 2  free  transition at x/c =  0.0969   34

   8   rms: 0.1213E+01   max: -.4035E+01   T at   34  2   RLX: 0.124
       a =-14.000      CL = -2.5613
      Cm =  0.3214     CD =  0.02333   =>   CDf =  0.01629    CDp =  0.00704

 Side 1 forced transition at x/c =  0.9997   69
 Side 2  free  transition at x/c =  0.1044   34

   9   rms: 0.8469E+01   max: -.3094E+02   T at   34  2   RLX: 0.016
       a =-14.000      CL = -2.6077
      Cm =  0.3216     CD =  0.03294   =>   CDf =  0.01115    CDp =  0.02179

 Side 1 forced transition at x/c =  0.9997   69
 Side 2  free  transition at x/c =  0.1148   35

  10   rms: 0.1799E+01   max: 0.1122E+02   T at   35  2   RLX: 0.134
       a =-14.000      CL = -2.3112
      Cm =  0.2408     CD =  0.02456   =>   CDf =  0.01065    CDp =  0.01391

 MRCHDU: Convergence failed at  35  side 2    Res =  0.1471E+02
 MRCHDU: Convergence failed at  36  side 2    Res =  0.2702E+02
 MRCHDU: Convergence failed at  37  side 2    Res =  0.9539E+02
 MRCHDU: Convergence failed at  38  side 2    Res =  0.2657E+03
 MRCHDU: Convergence failed at  39  side 2    Res =  0.1032E+03
 MRCHDU: Convergence failed at  40  side 2    Res =  0.4078E+02
 MRCHDU: Convergence failed at  41  side 2    Res =  0.9528E+02
 MRCHDU: Convergence failed at  42  side 2    Res =  0.4348E+02
 MRCHDU: Convergence failed at  43  side 2    Res =  0.6867E+02
 MRCHDU: Convergence failed at  44  side 2    Res =  0.1162E+03
 MRCHDU: Convergence failed at  45  side 2    Res =  0.1444E+03
 MRCHDU: Convergence failed at  46  side 2    Res =  0.1492E+03
 MRCHDU: Convergence failed at  47  side 2    Res =  0.1409E+03
 MRCHDU: Convergence failed at  48  side 2    Res =  0.1372E+03
 MRCHDU: Convergence failed at  49  side 2    Res =  0.8481E+02
 MRCHDU: Convergence failed at  50  side 2    Res =  0.3608E+03
 MRCHDU: Convergence failed at  51  side 2    Res =  0.1720E+04
 MRCHDU: Convergence failed at  52  side 2    Res =  0.1020E+04
 MRCHDU: Convergence failed at  53  side 2    Res =  0.1929E+04
 MRCHDU: Convergence failed at  54  side 2    Res =  0.1763E+03
 MRCHDU: Convergence failed at  55  side 2    Res =  0.1457E+03
 MRCHDU: Convergence failed at  56  side 2    Res =  0.1638E+03
 MRCHDU: Convergence failed at  57  side 2    Res =  0.1615E+03
 MRCHDU: Convergence failed at  58  side 2    Res =  0.1613E+03
 MRCHDU: Convergence failed at  59  side 2    Res =  0.1340E+03
 MRCHDU: Convergence failed at  60  side 2    Res =  0.1431E+03
 MRCHDU: Convergence failed at  61  side 2    Res =  0.1447E+03
 MRCHDU: Convergence failed at  62  side 2    Res =  0.1414E+03
 MRCHDU: Convergence failed at  63  side 2    Res =  0.1428E+03
 MRCHDU: Convergence failed at  64  side 2    Res =  0.1425E+03
 MRCHDU: Convergence failed at  65  side 2    Res =  0.1474E+03
 MRCHDU: Convergence failed at  66  side 2    Res =  0.1398E+03
 MRCHDU: Convergence failed at  67  side 2    Res =  0.1641E+03
 MRCHDU: Convergence failed at  68  side 2    Res =  0.1091E+03
 MRCHDU: Convergence failed at  69  side 2    Res =  0.9272E+02
 MRCHDU: Convergence failed at  70  side 2    Res =  0.8484E+02
 MRCHDU: Convergence failed at  71  side 2    Res =  0.7732E+02
 MRCHDU: Convergence failed at  72  side 2    Res =  0.7559E+02
 MRCHDU: Convergence failed at  73  side 2    Res =  0.1012E+04
 MRCHDU: Convergence failed at  74  side 2    Res =  0.5395E+02
 MRCHDU: Convergence failed at  75  side 2    Res =  0.1964E+04
 MRCHDU: Convergence failed at  76  side 2    Res =  0.2755E+03
 MRCHDU: Convergence failed at  77  side 2    Res =  0.6579E+02
 MRCHDU: Convergence failed at  78  side 2    Res =  0.7593E+02
 MRCHDU: Convergence failed at  79  side 2    Res =  0.7616E+02
 MRCHDU: Convergence failed at  80  side 2    Res =  0.7954E+02
 MRCHDU: Convergence failed at  81  side 2    Res =  0.8325E+02
 MRCHDU: Convergence failed at  82  side 2    Res =  0.8727E+02
 MRCHDU: Convergence failed at  83  side 2    Res =  0.9176E+02
 MRCHDU: Convergence failed at  84  side 2    Res =  0.9627E+02
 MRCHDU: Convergence failed at  85  side 2    Res =  0.1013E+03
 MRCHDU: Convergence failed at  86  side 2    Res =  0.1068E+03
 MRCHDU: Convergence failed at  87  side 2    Res =  0.8166E+02
 MRCHDU: Convergence failed at  88  side 2    Res =  0.8552E+02
 MRCHDU: Convergence failed at  89  side 2    Res =  0.7165E+02
 MRCHDU: Convergence failed at  90  side 2    Res =  0.7601E+02
 MRCHDU: Convergence failed at  91  side 2    Res =  0.8239E+02
 MRCHDU: Convergence failed at  92  side 2    Res =  0.9251E+02
 MRCHDU: Convergence failed at  93  side 2    Res =  0.3626E+03
 Side 1 forced transition at x/c =  0.9997   69
 Side 2  free  transition at x/c =  0.1014   34

  11   rms: 0.2495E+01   max: 0.1495E+02   D at   97  2   RLX: 0.061
       a =-14.000      CL = -5.0261
      Cm =  1.1936     CD =  0.01015   =>   CDf =  0.00563    CDp =  0.00452

 Side 1 forced transition at x/c =  0.9997   69
 Side 2  free  transition at x/c =  0.1091   34

  12   rms: 0.1432E+01   max: -.8051E+01   T at   34  2   RLX: 0.062
       a =-14.000      CL = -4.0011
      Cm =  0.8209     CD =  0.06786   =>   CDf =  0.00664    CDp =  0.06122

 Side 1 forced transition at x/c =  0.9997   69
 Side 2  free  transition at x/c =  0.1122   35
 idif Ue xi dudx           1  0.14641137      8.01712275E-03   18.262335    
 Uenew xinew           2  9.87505354E-03  5.40733337E-04

  13   rms: 0.2791E+01   max: 0.2543E+02   T at   35  2   RLX: 0.059
       a =-14.000      CL = -3.7644
      Cm =  0.7081     CD =  0.06272   =>   CDf =  0.00594    CDp =  0.05679

 Side 1 forced transition at x/c =  0.9997   68
 Side 2  free  transition at x/c =  0.1026   35

  14   rms: 0.1798E+01   max: -.1085E+02   T at   35  2   RLX: 0.046
       a =-14.000      CL = -3.7718
      Cm =  0.7159     CD =  0.07622   =>   CDf =  0.00752    CDp =  0.06870

 Side 1 forced transition at x/c =  0.9997   69
 Side 2  free  transition at x/c =  0.1097   34

  15   rms: 0.1264E+01   max: -.5202E+01   T at   34  2   RLX: 0.096
       a =-14.000      CL = -3.3804
      Cm =  0.5979     CD =  0.07960   =>   CDf =  0.00689    CDp =  0.07271

 Side 1 forced transition at x/c =  0.9997   69
 Side 2  free  transition at x/c =  0.1119   35
 idif Ue xi dudx           1  0.18746160      1.03887320E-02   18.044704    
 Uenew xinew           2  5.25523610E-02  2.91234255E-03

  16   rms: 0.5861E+01   max: 0.4439E+02   T at   35  2   RLX: 0.034
       a =-14.000      CL = -3.2361
      Cm =  0.4927     CD =  0.06390   =>   CDf =  0.00609    CDp =  0.05782

 MRCHDU: Convergence failed at  36  side 2    Res =  0.2685E+02
 MRCHDU: Convergence failed at  37  side 2    Res =  0.6839E+02
 MRCHDU: Convergence failed at  38  side 2    Res =  0.5120E+02
 MRCHDU: Convergence failed at  39  side 2    Res =  0.3052E+02
 MRCHDU: Convergence failed at  40  side 2    Res =  0.2119E+03
 MRCHDU: Convergence failed at  41  side 2    Res =  0.3685E+02
 MRCHDU: Convergence failed at  42  side 2    Res =  0.3784E+02
 MRCHDU: Convergence failed at  43  side 2    Res =  0.9851E+02
 MRCHDU: Convergence failed at  44  side 2    Res =  0.1641E+03
 MRCHDU: Convergence failed at  45  side 2    Res =  0.4607E+02
 MRCHDU: Convergence failed at  46  side 2    Res =  0.2964E+02
 MRCHDU: Convergence failed at  47  side 2    Res =  0.3864E+02
 MRCHDU: Convergence failed at  48  side 2    Res =  0.5628E+02
 MRCHDU: Convergence failed at  49  side 2    Res =  0.4955E+02
 MRCHDU: Convergence failed at  50  side 2    Res =  0.2278E+03
 MRCHDU: Convergence failed at  51  side 2    Res =  0.1114E+04
 MRCHDU: Convergence failed at  52  side 2    Res =  0.1288E+03
 MRCHDU: Convergence failed at  53  side 2    Res =  0.6836E+02
 MRCHDU: Convergence failed at  54  side 2    Res =  0.4475E+02
 MRCHDU: Convergence failed at  55  side 2    Res =  0.3457E+02
 MRCHDU: Convergence failed at  56  side 2    Res =  0.5894E+02
 MRCHDU: Convergence failed at  57  side 2    Res =  0.5357E+02
 MRCHDU: Convergence failed at  58  side 2    Res =  0.3788E+02
 MRCHDU: Convergence failed at  59  side 2    Res =  0.4236E+02
 MRCHDU: Convergence failed at  60  side 2    Res =  0.4987E+02
 MRCHDU: Convergence failed at  61  side 2    Res =  0.5986E+02
 MRCHDU: Convergence failed at  62  side 2    Res =  0.7474E+02
 MRCHDU: Convergence failed at  63  side 2    Res =  0.5677E+02
 MRCHDU: Convergence failed at  64  side 2    Res =  0.1851E+03
 MRCHDU: Convergence failed at  65  side 2    Res =  0.5161E+03
 MRCHDU: Convergence failed at  66  side 2    Res =  0.6093E+03
 MRCHDU: Convergence failed at  67  side 2    Res =  0.2038E+03
 MRCHDU: Convergence failed at  68  side 2    Res =  0.1257E+03
 MRCHDU: Convergence failed at  69  side 2    Res =  0.8719E+02
 MRCHDU: Convergence failed at  70  side 2    Res =  0.6781E+02
 MRCHDU: Convergence failed at  71  side 2    Res =  0.5186E+02
 MRCHDU: Convergence failed at  72  side 2    Res =  0.4445E+02
 MRCHDU: Convergence failed at  73  side 2    Res =  0.3982E+02
 MRCHDU: Convergence failed at  74  side 2    Res =  0.3698E+02
 MRCHDU: Convergence failed at  75  side 2    Res =  0.3438E+02
 MRCHDU: Convergence failed at  76  side 2    Res =  0.3030E+02
 MRCHDU: Convergence failed at  77  side 2    Res =  0.3274E+02
 MRCHDU: Convergence failed at  78  side 2    Res =  0.3517E+02
 MRCHDU: Convergence failed at  79  side 2    Res =  0.3798E+02
 MRCHDU: Convergence failed at  80  side 2    Res =  0.4074E+02
 MRCHDU: Convergence failed at  81  side 2    Res =  0.4437E+02
 MRCHDU: Convergence failed at  82  side 2    Res =  0.4872E+02
 MRCHDU: Convergence failed at  83  side 2    Res =  0.5485E+02
 MRCHDU: Convergence failed at  84  side 2    Res =  0.6308E+02
 MRCHDU: Convergence failed at  85  side 2    Res =  0.7394E+02
 MRCHDU: Convergence failed at  86  side 2    Res =  0.9739E+02
 MRCHDU: Convergence failed at  87  side 2    Res =  0.1273E+03
 MRCHDU: Convergence failed at  88  side 2    Res =  0.1820E+03
 MRCHDU: Convergence failed at  89  side 2    Res =  0.3187E+03
 MRCHDU: Convergence failed at  90  side 2    Res =  0.9551E+03
 MRCHDU: Convergence failed at  91  side 2    Res =  0.6569E+03
 MRCHDU: Convergence failed at  92  side 2    Res =  0.2395E+03
 MRCHDU: Convergence failed at  93  side 2    Res =  0.1800E+03
 MRCHDU: Convergence failed at  94  side 2    Res =  0.2000E+03
 Side 1 forced transition at x/c =  0.9997   68
 Side 2  free  transition at x/c =  0.0979   35

  17   rms: 0.2662E+01   max: -.2090E+02   T at   35  2   RLX: 0.024
       a =-14.000      CL = -5.6793
      Cm =  1.3457     CD =  0.01647   =>   CDf =  0.00592    CDp =  0.01056

 Side 1 forced transition at x/c =  0.9997   68
 Side 2  free  transition at x/c =  0.1031   35

  18   rms: 0.1875E+01   max: -.1397E+02   T at   35  2   RLX: 0.036
       a =-14.000      CL = -4.6996
      Cm =  0.9934     CD =  0.09085   =>   CDf =  0.00675    CDp =  0.08410

 Side 1 forced transition at x/c =  0.9997   68
 Side 2  free  transition at x/c =  0.1061   35

  19   rms: 0.1566E+01   max: 0.2644E+01   D at  101  2   RLX: 0.123
       a =-14.000      CL = -4.1115
      Cm =  0.8584     CD =  0.09846   =>   CDf =  0.00774    CDp =  0.09072

 Side 1 forced transition at x/c =  0.9997   69
 Side 2  free  transition at x/c =  0.1067   34

  20   rms: 0.1503E+01   max: 0.1571E+01   D at  102  2   RLX: 0.133
       a =-14.000      CL = -3.4980
      Cm =  0.7127     CD =  0.11364   =>   CDf =  0.00734    CDp =  0.10630

 Side 1 forced transition at x/c =  0.9997   69
 Side 2  free  transition at x/c =  0.1074   34

  21   rms: 0.1308E+01   max: -.1246E+01   T at  107  2   RLX: 0.158
       a =-14.000      CL = -2.8958
      Cm =  0.5701     CD =  0.12818   =>   CDf =  0.00836    CDp =  0.11982

 Side 1 forced transition at x/c =  0.9997   70
 Side 2  free  transition at x/c =  0.1081   33

  22   rms: 0.1073E+01   max: -.1123E+01   T at  108  2   RLX: 0.199
       a =-14.000      CL = -2.3121
      Cm =  0.4306     CD =  0.13958   =>   CDf =  0.00861    CDp =  0.13098

 Side 1 forced transition at x/c =  0.9997   71
 Side 2  free  transition at x/c =  0.1088   32

  23   rms: 0.9063E+00   max: -.5942E+01   D at    2  1   RLX: 0.084
       a =-14.000      CL = -2.1264
      Cm =  0.3840     CD =  0.17088   =>   CDf =  0.00833    CDp =  0.16254

 Side 1 forced transition at x/c =  0.9997   71
 Side 2  free  transition at x/c =  0.1090   32

  24   rms: 0.7637E+00   max: -.1148E+01   D at  113  2   RLX: 0.299
       a =-14.000      CL = -1.5712
      Cm =  0.2485     CD =  0.14514   =>   CDf =  0.00841    CDp =  0.13673

 Side 1 forced transition at x/c =  0.9997   71
 Side 2  free  transition at x/c =  0.1097   32

  25   rms: 0.5443E+00   max: -.7124E+00   C at  107  2   RLX: 0.482
       a =-14.000      CL = -1.0371
      Cm =  0.1053     CD =  0.15687   =>   CDf =  0.00900    CDp =  0.14787

 MRCHDU: Convergence failed at  90  side 2    Res =  0.2096E+03
 Side 1 forced transition at x/c =  0.9997   72
 Side 2 forced transition at x/c =  1.0003   90

  26   rms: 0.1308E+01   max: 0.6459E+01   D at  106  2   RLX: 0.173
       a =-14.000      CL = -1.4058
      Cm =  0.2772     CD =  0.03737   =>   CDf =  0.00734    CDp =  0.03003

 MRCHDU: Convergence failed at 106  side 2    Res =  0.3304E+01
 MRCHDU: Convergence failed at 107  side 2    Res =  0.1260E+02
 MRCHDU: Convergence failed at 108  side 2    Res =  0.4008E+02
 MRCHDU: Convergence failed at 109  side 2    Res =  0.2913E+01
 MRCHDU: Convergence failed at 110  side 2    Res =  0.2310E+01
 MRCHDU: Convergence failed at 111  side 2    Res =  0.2167E+01
 Side 1 forced transition at x/c =  0.9997   72
 Side 2  free  transition at x/c =  0.3408   48

  27   rms: 0.2131E+01   max: 0.4970E+02   T at   48  2   RLX: 0.028
       a =-14.000      CL = -1.3115
      Cm =  0.2277     CD =  0.16710   =>   CDf =  0.00814    CDp =  0.15896

 Side 1 forced transition at x/c =  0.9997   72
 Side 2  free  transition at x/c =  0.3082   46

  28   rms: 0.2016E+01   max: 0.4060E+02   T at   46  2   RLX: 0.037
       a =-14.000      CL = -1.3174
      Cm =  0.2229     CD =  0.19483   =>   CDf =  0.00822    CDp =  0.18661

 Side 1 forced transition at x/c =  0.9997   72
 Side 2  free  transition at x/c =  0.2840   44

  29   rms: 0.1253E+01   max: 0.2566E+02   T at   44  2   RLX: 0.046
       a =-14.000      CL = -1.3113
      Cm =  0.2254     CD =  0.18915   =>   CDf =  0.00826    CDp =  0.18089

 Side 1 forced transition at x/c =  0.9997   72
 Side 2  free  transition at x/c =  0.2554   42

  30   rms: 0.1427E+01   max: 0.1731E+02   T at   42  2   RLX: 0.041
       a =-14.000      CL = -1.2855
      Cm =  0.2255     CD =  0.19756   =>   CDf =  0.00839    CDp =  0.18917

 MRCHDU: Convergence failed at 112  side 2    Res =  0.7760E-02
 Side 1 forced transition at x/c =  0.9997   72
 Side 2  free  transition at x/c =  0.2356   41

  31   rms: 0.8436E+00   max: 0.1432E+02   T at   41  2   RLX: 0.081
       a =-14.000      CL = -1.2281
      Cm =  0.2072     CD =  0.17324   =>   CDf =  0.00851    CDp =  0.16473

 MRCHDU: Convergence failed at 112  side 2    Res =  0.1647E+00
 Side 1 forced transition at x/c =  0.9997   72
 Side 2  free  transition at x/c =  0.2149   40

  32   rms: 0.9133E+00   max: 0.6872E+01   T at   40  2   RLX: 0.218
       a =-14.000      CL = -0.9481
      Cm =  0.1430     CD =  0.22075   =>   CDf =  0.00891    CDp =  0.21184

 Side 1 forced transition at x/c =  0.9997   73
 Side 2  free  transition at x/c =  0.2027   38

  33   rms: 0.6860E+00   max: 0.4415E+01   T at   38  2   RLX: 0.247
       a =-14.000      CL = -0.7383
      Cm =  0.0985     CD =  0.29766   =>   CDf =  0.00839    CDp =  0.28927

 Side 1 forced transition at x/c =  0.9997   73
 Side 2  free  transition at x/c =  0.1905   37

  34   rms: 0.5204E+00   max: 0.2641E+01   T at   37  2   RLX: 0.302
       a =-14.000      CL = -0.5476
      Cm =  0.0582     CD =  0.37570   =>   CDf =  0.00834    CDp =  0.36736

 Side 1 forced transition at x/c =  0.9997   74
 Side 2  free  transition at x/c =  0.1798   35

  35   rms: 0.4001E+00   max: -.1305E+01   T at  110  2   RLX: 0.383
       a =-14.000      CL = -0.3910
      Cm =  0.0262     CD =  0.41068   =>   CDf =  0.00804    CDp =  0.40263

 Side 1 forced transition at x/c =  0.9997   74
 Side 2  free  transition at x/c =  0.1717   35

  36   rms: 0.2992E+00   max: 0.1514E+01   T at   35  2   RLX: 0.550
       a =-14.000      CL = -0.2727
      Cm = -0.0046     CD =  0.27385   =>   CDf =  0.00786    CDp =  0.26599

 Side 1 forced transition at x/c =  0.9997   74
 Side 2  free  transition at x/c =  0.1669   34

  37   rms: 0.1988E+00   max: -.9017E+00   D at  110  2   RLX: 0.554
       a =-14.000      CL = -0.2483
      Cm = -0.0154     CD =  0.20934   =>   CDf =  0.00775    CDp =  0.20160

 Side 1 forced transition at x/c =  0.9997   74
 Side 2  free  transition at x/c =  0.1630   34

  38   rms: 0.1554E+00   max: -.8452E+00   D at  110  2   RLX: 0.592
       a =-14.000      CL = -0.2703
      Cm = -0.0175     CD =  0.16987   =>   CDf =  0.00770    CDp =  0.16217

 Side 1 forced transition at x/c =  0.9997   74
 Side 2  free  transition at x/c =  0.1582   34

  39   rms: 0.1352E+00   max: -.7441E+00   D at  110  2   RLX: 0.672
       a =-14.000      CL = -0.3141
      Cm = -0.0162     CD =  0.15871   =>   CDf =  0.00771    CDp =  0.15100

 Side 1 forced transition at x/c =  0.9997   74
 Side 2  free  transition at x/c =  0.1562   33
 idif Ue xi dudx           1  0.11292334      3.91817093E-03   28.820421    
 Uenew xinew           2  6.03302242E-03  2.09331512E-04

  40   rms: 0.8297E-01   max: -.5706E+00   D at  109  2   RLX: 0.876
       a =-14.000      CL = -0.3523
      Cm = -0.0123     CD =  0.15852   =>   CDf =  0.00764    CDp =  0.15089

 Side 1 forced transition at x/c =  0.9997   73
 Side 2  free  transition at x/c =  0.1555   34

  41   rms: 0.3991E-01   max: -.3201E+00   D at  110  2
       a =-14.000      CL = -0.3845
      Cm = -0.0077     CD =  0.15747   =>   CDf =  0.00771    CDp =  0.14977

 Side 1 forced transition at x/c =  0.9997   73
 Side 2  free  transition at x/c =  0.1546   34

  42   rms: 0.3071E-01   max: -.1314E+00   T at   34  2
       a =-14.000      CL = -0.3576
      Cm = -0.0110     CD =  0.15095   =>   CDf =  0.00774    CDp =  0.14321

 Side 1 forced transition at x/c =  0.9997   73
 Side 2  free  transition at x/c =  0.1554   34

  43   rms: 0.4329E-02   max: -.2919E-01   D at   34  2
       a =-14.000      CL = -0.3608
      Cm = -0.0109     CD =  0.15075   =>   CDf =  0.00762    CDp =  0.14314

 Side 1 forced transition at x/c =  0.9997   73
 Side 2  free  transition at x/c =  0.1556   34

  44   rms: 0.7788E-03   max: -.5070E-02   D at  110  2
       a =-14.000      CL = -0.3613
      Cm = -0.0108     CD =  0.15112   =>   CDf =  0.00762    CDp =  0.14351

 Side 1 forced transition at x/c =  0.9997   73
 Side 2  free  transition at x/c =  0.1556   34

  45   rms: 0.4841E-04   max: -.4897E-03   D at  110  2
       a =-14.000      CL = -0.3613
      Cm = -0.0108     CD =  0.15117   =>   CDf =  0.00762    CDp =  0.14355
 plradd ia,ip,cpol            1          72  3.54363187E-03

 Point added to stored polar  1
 Save file unspecified or not available
 Dump file unspecified or not available

.OPERva   c>  
.OPERva   c>  
.OPERva   c>   Calculating wake trajectory ...
 Calculating source influence matrix ...

 Solving BL system ...

 Side 1 forced transition at x/c =  0.9997   73
 Side 2  free  transition at x/c =  0.1556   34

   1   rms: 0.1289E+00   max: -.7929E+00   T at   34  2   RLX: 0.631
       a =-13.000      CL = -0.3810
      Cm = -0.0141     CD =  0.14663   =>   CDf =  0.00762    CDp =  0.13901

 Side 1 forced transition at x/c =  0.9997   73
 Side 2  free  transition at x/c =  0.1540   34

   2   rms: 0.8916E-01   max: -.3849E+00   D at   34  2
       a =-13.000      CL = -0.3698
      Cm = -0.0112     CD =  0.15118   =>   CDf =  0.00766    CDp =  0.14351

 Side 1 forced transition at x/c =  0.9997   74
 Side 2  free  transition at x/c =  0.1675   34

   3   rms: 0.8846E-01   max: 0.4152E+00   D at   35  2
       a =-13.000      CL = -0.3298
      Cm = -0.0097     CD =  0.14367   =>   CDf =  0.00749    CDp =  0.13618

 Side 1 forced transition at x/c =  0.9997   74
 Side 2  free  transition at x/c =  0.1623   34

   4   rms: 0.3325E-01   max: -.1615E+00   D at   34  2
       a =-13.000      CL = -0.3258
      Cm = -0.0131     CD =  0.13228   =>   CDf =  0.00759    CDp =  0.12469

 Side 1 forced transition at x/c =  0.9997   74
 Side 2  free  transition at x/c =  0.1641   34

   5   rms: 0.1693E-01   max: 0.7494E-01   T at   34  2
       a =-13.000      CL = -0.3393
      Cm = -0.0120     CD =  0.13740   =>   CDf =  0.00761    CDp =  0.12980

 Side 1 forced transition at x/c =  0.9997   74
 Side 2  free  transition at x/c =  0.1633   34

   6   rms: 0.1281E-02   max: -.1332E-01   D at  109  2
       a =-13.000      CL = -0.3385
      Cm = -0.0121     CD =  0.13785   =>   CDf =  0.00758    CDp =  0.13027

 Side 1 forced transition at x/c =  0.9997   74
 Side 2  free  transition at x/c =  0.1633   34

   7   rms: 0.1859E-03   max: 0.8791E-03   T at   34  2
       a =-13.000      CL = -0.3386
      Cm = -0.0121     CD =  0.13788   =>   CDf =  0.00757    CDp =  0.13031

 Side 1 forced transition at x/c =  0.9997   74
 Side 2  free  transition at x/c =  0.1633   34

   8   rms: 0.1067E-04   max: -.1362E-03   D at  109  2
       a =-13.000      CL = -0.3386
      Cm = -0.0121     CD =  0.13789   =>   CDf =  0.00757    CDp =  0.13032
 plradd ia,ip,cpol            2          73  5.15398290E-03

 Point added to stored polar  1
 Save file unspecified or not available
 Dump file unspecified or not available

.OPERva   c>  
.OPERva   c>  
.OPERva   c>   Calculating wake trajectory ...
 Calculating source influence matrix ...

 Solving BL system ...

 Side 1 forced transition at x/c =  0.9997   74
 Side 2  free  transition at x/c =  0.1633   34

   1   rms: 0.6856E-01   max: -.1131E+01   T at   34  2   RLX: 0.442
       a =-12.000      CL = -0.3328
      Cm = -0.0132     CD =  0.13153   =>   CDf =  0.00758    CDp =  0.12395

 Side 1 forced transition at x/c =  0.9997   74
 Side 2  free  transition at x/c =  0.1660   34

   2   rms: 0.5656E-01   max: -.3775E+00   T at   34  2
       a =-12.000      CL = -0.3341
      Cm = -0.0158     CD =  0.12619   =>   CDf =  0.00756    CDp =  0.11863

 Side 1 forced transition at x/c =  0.9997   74
 Side 2  free  transition at x/c =  0.1677   34

   3   rms: 0.5865E-01   max: -.2147E+00   D at   34  2
       a =-12.000      CL = -0.3705
      Cm = -0.0166     CD =  0.13259   =>   CDf =  0.00751    CDp =  0.12509

 Side 1 forced transition at x/c =  0.9997   74
 Side 2  free  transition at x/c =  0.1763   35

   4   rms: 0.2092E+00   max: 0.1496E+01   D at   35  2
       a =-12.000      CL = -0.3211
      Cm = -0.0065     CD =  0.14967   =>   CDf =  0.00736    CDp =  0.14231

 Side 1 forced transition at x/c =  0.9997   74
 Side 2  free  transition at x/c =  0.1692   35

   5   rms: 0.9102E-01   max: -.6610E+00   T at   35  2   RLX: 0.756
       a =-12.000      CL = -0.2952
      Cm = -0.0166     CD =  0.12233   =>   CDf =  0.00740    CDp =  0.11494

 Side 1 forced transition at x/c =  0.9997   74
 Side 2  free  transition at x/c =  0.1716   35

   6   rms: 0.4463E-01   max: -.2832E+00   D at   35  2
       a =-12.000      CL = -0.3103
      Cm = -0.0148     CD =  0.12070   =>   CDf =  0.00750    CDp =  0.11320

 Side 1 forced transition at x/c =  0.9997   74
 Side 2  free  transition at x/c =  0.1734   35

   7   rms: 0.2371E-01   max: -.9463E-01   D at  108  2
       a =-12.000      CL = -0.3291
      Cm = -0.0138     CD =  0.12574   =>   CDf =  0.00752    CDp =  0.11822

 Side 1 forced transition at x/c =  0.9997   74
 Side 2  free  transition at x/c =  0.1724   35

   8   rms: 0.2436E-02   max: -.2755E-01   D at  109  2
       a =-12.000      CL = -0.3280
      Cm = -0.0139     CD =  0.12626   =>   CDf =  0.00747    CDp =  0.11879

 Side 1 forced transition at x/c =  0.9997   74
 Side 2  free  transition at x/c =  0.1725   35

   9   rms: 0.4351E-03   max: 0.1918E-02   T at   35  2
       a =-12.000      CL = -0.3283
      Cm = -0.0139     CD =  0.12633   =>   CDf =  0.00746    CDp =  0.11887

 Side 1 forced transition at x/c =  0.9997   74
 Side 2  free  transition at x/c =  0.1725   35

  10   rms: 0.3270E-04   max: -.4285E-03   D at  109  2
       a =-12.000      CL = -0.3283
      Cm = -0.0139     CD =  0.12635   =>   CDf =  0.00746    CDp =  0.11889
 plradd ia,ip,cpol            3          73  5.15398290E-03

 Point added to stored polar  1
 Save file unspecified or not available
 Dump file unspecified or not available

.OPERva   c>  
.OPERva   c>  
.OPERva   c>   Calculating wake trajectory ...
 Calculating source influence matrix ...

 Solving BL system ...

 Side 1 forced transition at x/c =  0.9997   74
 Side 2  free  transition at x/c =  0.1725   35

   1   rms: 0.9653E-01   max: -.1236E+01   T at   35  2   RLX: 0.405
       a =-11.000      CL = -0.3142
      Cm = -0.0139     CD =  0.11955   =>   CDf =  0.00753    CDp =  0.11203

 Side 1 forced transition at x/c =  0.9997   75
 Side 2  free  transition at x/c =  0.1766   34

   2   rms: 0.6860E-01   max: -.6530E+00   D at    2  1   RLX: 0.766
       a =-11.000      CL = -0.3096
      Cm = -0.0149     CD =  0.11444   =>   CDf =  0.00746    CDp =  0.10698

 Side 1 forced transition at x/c =  0.9997   75
 Side 2  free  transition at x/c =  0.1791   34

   3   rms: 0.4376E-01   max: -.2796E+00   D at   34  2
       a =-11.000      CL = -0.3257
      Cm = -0.0168     CD =  0.11493   =>   CDf =  0.00742    CDp =  0.10751

 Side 1 forced transition at x/c =  0.9997   75
 Side 2  free  transition at x/c =  0.1827   35
 idif Ue xi dudx           1  0.13837151      3.68702412E-03   37.529320    
 Uenew xinew           2  1.44818313E-02  3.85880470E-04

   4   rms: 0.4679E-01   max: 0.2515E+00   T at   35  2
       a =-11.000      CL = -0.3518
      Cm = -0.0168     CD =  0.11913   =>   CDf =  0.00727    CDp =  0.11187

 Side 1 forced transition at x/c =  0.9997   74
 Side 2  free  transition at x/c =  0.1815   35

   5   rms: 0.9226E-02   max: -.3472E-01   D at  109  2
       a =-11.000      CL = -0.3507
      Cm = -0.0176     CD =  0.11934   =>   CDf =  0.00723    CDp =  0.11211

 Side 1 forced transition at x/c =  0.9997   74
 Side 2  free  transition at x/c =  0.1830   36

   6   rms: 0.7392E-01   max: 0.3548E+00   T at   36  2
       a =-11.000      CL = -0.3615
      Cm = -0.0157     CD =  0.12426   =>   CDf =  0.00719    CDp =  0.11707

 Side 1 forced transition at x/c =  0.9997   74
 Side 2  free  transition at x/c =  0.1813   35

   7   rms: 0.2428E-01   max: 0.8429E-01   D at  105  2
       a =-11.000      CL = -0.3517
      Cm = -0.0170     CD =  0.12129   =>   CDf =  0.00715    CDp =  0.11413

 Side 1 forced transition at x/c =  0.9997   74
 Side 2  free  transition at x/c =  0.1816   35

   8   rms: 0.3573E-02   max: 0.2447E-01   D at  110  2
       a =-11.000      CL = -0.3517
      Cm = -0.0175     CD =  0.11976   =>   CDf =  0.00721    CDp =  0.11255

 Side 1 forced transition at x/c =  0.9997   74
 Side 2  free  transition at x/c =  0.1828   36

   9   rms: 0.7050E-01   max: 0.3426E+00   T at   36  2
       a =-11.000      CL = -0.3624
      Cm = -0.0159     CD =  0.12420   =>   CDf =  0.00718    CDp =  0.11701

 Side 1 forced transition at x/c =  0.9997   74
 Side 2  free  transition at x/c =  0.1813   35

  10   rms: 0.2479E-01   max: 0.8448E-01   D at  105  2
       a =-11.000      CL = -0.3519
      Cm = -0.0170     CD =  0.12136   =>   CDf =  0.00715    CDp =  0.11420

 Side 1 forced transition at x/c =  0.9997   74
 Side 2  free  transition at x/c =  0.1816   35

  11   rms: 0.3492E-02   max: 0.1972E-01   D at  110  2
       a =-11.000      CL = -0.3517
      Cm = -0.0175     CD =  0.11979   =>   CDf =  0.00721    CDp =  0.11258

 Side 1 forced transition at x/c =  0.9997   74
 Side 2  free  transition at x/c =  0.1828   36

  12   rms: 0.7035E-01   max: 0.3421E+00   T at   36  2
       a =-11.000      CL = -0.3624
      Cm = -0.0159     CD =  0.12418   =>   CDf =  0.00718    CDp =  0.11700

 Side 1 forced transition at x/c =  0.9997   74
 Side 2  free  transition at x/c =  0.1813   35

  13   rms: 0.2480E-01   max: 0.8432E-01   D at  105  2
       a =-11.000      CL = -0.3520
      Cm = -0.0170     CD =  0.12136   =>   CDf =  0.00715    CDp =  0.11421

 Side 1 forced transition at x/c =  0.9997   74
 Side 2  free  transition at x/c =  0.1816   35

  14   rms: 0.3493E-02   max: 0.1965E-01   D at  110  2
       a =-11.000      CL = -0.3517
      Cm = -0.0175     CD =  0.11979   =>   CDf =  0.00721    CDp =  0.11258

 Side 1 forced transition at x/c =  0.9997   74
 Side 2  free  transition at x/c =  0.1828   36

  15   rms: 0.7028E-01   max: 0.3414E+00   T at   36  2
       a =-11.000      CL = -0.3623
      Cm = -0.0159     CD =  0.12417   =>   CDf =  0.00718    CDp =  0.11699

 Side 1 forced transition at x/c =  0.9997   74
 Side 2  free  transition at x/c =  0.1813   35

  16   rms: 0.2467E-01   max: 0.8398E-01   D at  105  2
       a =-11.000      CL = -0.3519
      Cm = -0.0170     CD =  0.12135   =>   CDf =  0.00715    CDp =  0.11419

 Side 1 forced transition at x/c =  0.9997   74
 Side 2  free  transition at x/c =  0.1816   35

  17   rms: 0.3460E-02   max: 0.1962E-01   D at  110  2
       a =-11.000      CL = -0.3517
      Cm = -0.0175     CD =  0.11979   =>   CDf =  0.00721    CDp =  0.11258

 Side 1 forced transition at x/c =  0.9997   74
 Side 2  free  transition at x/c =  0.1828   36

  18   rms: 0.7033E-01   max: 0.3419E+00   T at   36  2
       a =-11.000      CL = -0.3624
      Cm = -0.0159     CD =  0.12418   =>   CDf =  0.00718    CDp =  0.11699

 Side 1 forced transition at x/c =  0.9997   74
 Side 2  free  transition at x/c =  0.1813   35

  19   rms: 0.2478E-01   max: 0.8424E-01   D at  105  2
       a =-11.000      CL = -0.3519
      Cm = -0.0170     CD =  0.12135   =>   CDf =  0.00715    CDp =  0.11420

 Side 1 forced transition at x/c =  0.9997   74
 Side 2  free  transition at x/c =  0.1816   35

  20   rms: 0.3434E-02   max: 0.1937E-01   D at  110  2
       a =-11.000      CL = -0.3517
      Cm = -0.0175     CD =  0.11979   =>   CDf =  0.00721    CDp =  0.11258

 Side 1 forced transition at x/c =  0.9997   74
 Side 2  free  transition at x/c =  0.1828   36

  21   rms: 0.7033E-01   max: 0.3418E+00   T at   36  2
       a =-11.000      CL = -0.3624
      Cm = -0.0159     CD =  0.12418   =>   CDf =  0.00718    CDp =  0.11699

 Side 1 forced transition at x/c =  0.9997   74
 Side 2  free  transition at x/c =  0.1813   35

  22   rms: 0.2474E-01   max: 0.8419E-01   D at  105  2
       a =-11.000      CL = -0.3519
      Cm = -0.0170     CD =  0.12136   =>   CDf =  0.00715    CDp =  0.11420

 Side 1 forced transition at x/c =  0.9997   74
 Side 2  free  transition at x/c =  0.1816   35

  23   rms: 0.3479E-02   max: 0.1961E-01   D at  110  2
       a =-11.000      CL = -0.3517
      Cm = -0.0175     CD =  0.11979   =>   CDf =  0.00721    CDp =  0.11258

 Side 1 forced transition at x/c =  0.9997   74
 Side 2  free  transition at x/c =  0.1828   36

  24   rms: 0.7032E-01   max: 0.3417E+00   T at   36  2
       a =-11.000      CL = -0.3624
      Cm = -0.0159     CD =  0.12418   =>   CDf =  0.00718    CDp =  0.11699

 Side 1 forced transition at x/c =  0.9997   74
 Side 2  free  transition at x/c =  0.1813   35

  25   rms: 0.2474E-01   max: 0.8411E-01   D at  105  2
       a =-11.000      CL = -0.3519
      Cm = -0.0170     CD =  0.12134   =>   CDf =  0.00715    CDp =  0.11419

 Side 1 forced transition at x/c =  0.9997   74
 Side 2  free  transition at x/c =  0.1816   35

  26   rms: 0.3415E-02   max: 0.1915E-01   D at  110  2
       a =-11.000      CL = -0.3517
      Cm = -0.0175     CD =  0.11979   =>   CDf =  0.00721    CDp =  0.11258

 Side 1 forced transition at x/c =  0.9997   74
 Side 2  free  transition at x/c =  0.1828   36

  27   rms: 0.7030E-01   max: 0.3416E+00   T at   36  2
       a =-11.000      CL = -0.3624
      Cm = -0.0159     CD =  0.12418   =>   CDf =  0.00718    CDp =  0.11699

 Side 1 forced transition at x/c =  0.9997   74
 Side 2  free  transition at x/c =  0.1813   35

  28   rms: 0.2472E-01   max: 0.8406E-01   D at  105  2
       a =-11.000      CL = -0.3519
      Cm = -0.0170     CD =  0.12134   =>   CDf =  0.00715    CDp =  0.11419

 Side 1 forced transition at x/c =  0.9997   74
 Side 2  free  transition at x/c =  0.1816   35

  29   rms: 0.3420E-02   max: 0.1918E-01   D at  110  2
       a =-11.000      CL = -0.3517
      Cm = -0.0175     CD =  0.11979   =>   CDf =  0.00721    CDp =  0.11258

 Side 1 forced transition at x/c =  0.9997   74
 Side 2  free  transition at x/c =  0.1828   36

  30   rms: 0.7031E-01   max: 0.3417E+00   T at   36  2
       a =-11.000      CL = -0.3624
      Cm = -0.0159     CD =  0.12418   =>   CDf =  0.00718    CDp =  0.11699

 Side 1 forced transition at x/c =  0.9997   74
 Side 2  free  transition at x/c =  0.1813   35

  31   rms: 0.2472E-01   max: 0.8413E-01   D at  105  2
       a =-11.000      CL = -0.3519
      Cm = -0.0170     CD =  0.12135   =>   CDf =  0.00715    CDp =  0.11420

 Side 1 forced transition at x/c =  0.9997   74
 Side 2  free  transition at x/c =  0.1816   35

  32   rms: 0.3499E-02   max: 0.1961E-01   D at  110  2
       a =-11.000      CL = -0.3517
      Cm = -0.0175     CD =  0.11979   =>   CDf =  0.00721    CDp =  0.11258

 Side 1 forced transition at x/c =  0.9997   74
 Side 2  free  transition at x/c =  0.1828   36

  33   rms: 0.7032E-01   max: 0.3417E+00   T at   36  2
       a =-11.000      CL = -0.3623
      Cm = -0.0159     CD =  0.12418   =>   CDf =  0.00718    CDp =  0.11699

 Side 1 forced transition at x/c =  0.9997   74
 Side 2  free  transition at x/c =  0.1813   35

  34   rms: 0.2472E-01   max: 0.8412E-01   D at  105  2
       a =-11.000      CL = -0.3519
      Cm = -0.0170     CD =  0.12135   =>   CDf =  0.00715    CDp =  0.11420

 Side 1 forced transition at x/c =  0.9997   74
 Side 2  free  transition at x/c =  0.1816   35

  35   rms: 0.3479E-02   max: 0.1962E-01   D at  110  2
       a =-11.000      CL = -0.3517
      Cm = -0.0175     CD =  0.11979   =>   CDf =  0.00721    CDp =  0.11258

 Side 1 forced transition at x/c =  0.9997   74
 Side 2  free  transition at x/c =  0.1828   36

  36   rms: 0.7026E-01   max: 0.3411E+00   T at   36  2
       a =-11.000      CL = -0.3623
      Cm = -0.0159     CD =  0.12417   =>   CDf =  0.00718    CDp =  0.11699

 Side 1 forced transition at x/c =  0.9997   74
 Side 2  free  transition at x/c =  0.1813   35

  37   rms: 0.2460E-01   max: 0.8380E-01   D at  105  2
       a =-11.000      CL = -0.3519
      Cm = -0.0170     CD =  0.12134   =>   CDf =  0.00715    CDp =  0.11419

 Side 1 forced transition at x/c =  0.9997   74
 Side 2  free  transition at x/c =  0.1816   35

  38   rms: 0.3444E-02   max: 0.1958E-01   D at  110  2
       a =-11.000      CL = -0.3517
      Cm = -0.0175     CD =  0.11979   =>   CDf =  0.00721    CDp =  0.11258

 Side 1 forced transition at x/c =  0.9997   74
 Side 2  free  transition at x/c =  0.1828   36

  39   rms: 0.7028E-01   max: 0.3414E+00   T at   36  2
       a =-11.000      CL = -0.3623
      Cm = -0.0159     CD =  0.12418   =>   CDf =  0.00718    CDp =  0.11699

 Side 1 forced transition at x/c =  0.9997   74
 Side 2  free  transition at x/c =  0.1813   35

  40   rms: 0.2467E-01   max: 0.8400E-01   D at  105  2
       a =-11.000      CL = -0.3519
      Cm = -0.0170     CD =  0.12135   =>   CDf =  0.00715    CDp =  0.11420

 Side 1 forced transition at x/c =  0.9997   74
 Side 2  free  transition at x/c =  0.1816   35

  41   rms: 0.3447E-02   max: 0.1967E-01   D at  110  2
       a =-11.000      CL = -0.3517
      Cm = -0.0175     CD =  0.11979   =>   CDf =  0.00721    CDp =  0.11258

 Side 1 forced transition at x/c =  0.9997   74
 Side 2  free  transition at x/c =  0.1828   36

  42   rms: 0.7031E-01   max: 0.3417E+00   T at   36  2
       a =-11.000      CL = -0.3624
      Cm = -0.0159     CD =  0.12418   =>   CDf =  0.00718    CDp =  0.11699

 Side 1 forced transition at x/c =  0.9997   74
 Side 2  free  transition at x/c =  0.1813   35

  43   rms: 0.2474E-01   max: 0.8413E-01   D at  105  2
       a =-11.000      CL = -0.3519
      Cm = -0.0170     CD =  0.12135   =>   CDf =  0.00715    CDp =  0.11420

 Side 1 forced transition at x/c =  0.9997   74
 Side 2  free  transition at x/c =  0.1816   35

  44   rms: 0.3441E-02   max: 0.1948E-01   D at  110  2
       a =-11.000      CL = -0.3517
      Cm = -0.0175     CD =  0.11979   =>   CDf =  0.00721    CDp =  0.11258

 Side 1 forced transition at x/c =  0.9997   74
 Side 2  free  transition at x/c =  0.1828   36

  45   rms: 0.7028E-01   max: 0.3414E+00   T at   36  2
       a =-11.000      CL = -0.3623
      Cm = -0.0159     CD =  0.12417   =>   CDf =  0.00718    CDp =  0.11699

 Side 1 forced transition at x/c =  0.9997   74
 Side 2  free  transition at x/c =  0.1813   35

  46   rms: 0.2467E-01   max: 0.8401E-01   D at  105  2
       a =-11.000      CL = -0.3519
      Cm = -0.0170     CD =  0.12134   =>   CDf =  0.00715    CDp =  0.11419

 Side 1 forced transition at x/c =  0.9997   74
 Side 2  free  transition at x/c =  0.1816   35

  47   rms: 0.3494E-02   max: 0.1955E-01   D at  110  2
       a =-11.000      CL = -0.3517
      Cm = -0.0175     CD =  0.11979   =>   CDf =  0.00721    CDp =  0.11258

 Side 1 forced transition at x/c =  0.9997   74
 Side 2  free  transition at x/c =  0.1828   36

  48   rms: 0.7030E-01   max: 0.3415E+00   T at   36  2
       a =-11.000      CL = -0.3623
      Cm = -0.0159     CD =  0.12418   =>   CDf =  0.00718    CDp =  0.11699

 Side 1 forced transition at x/c =  0.9997   74
 Side 2  free  transition at x/c =  0.1813   35

  49   rms: 0.2468E-01   max: 0.8402E-01   D at  105  2
       a =-11.000      CL = -0.3519
      Cm = -0.0170     CD =  0.12135   =>   CDf =  0.00715    CDp =  0.11419

 Side 1 forced transition at x/c =  0.9997   74
 Side 2  free  transition at x/c =  0.1816   35

  50   rms: 0.3489E-02   max: 0.1960E-01   D at  110  2
       a =-11.000      CL = -0.3517
      Cm = -0.0175     CD =  0.11979   =>   CDf =  0.00721    CDp =  0.11258

 Side 1 forced transition at x/c =  0.9997   74
 Side 2  free  transition at x/c =  0.1828   36

  51   rms: 0.7031E-01   max: 0.3415E+00   T at   36  2
       a =-11.000      CL = -0.3623
      Cm = -0.0159     CD =  0.12418   =>   CDf =  0.00718    CDp =  0.11699

 Side 1 forced transition at x/c =  0.9997   74
 Side 2  free  transition at x/c =  0.1813   35

  52   rms: 0.2468E-01   max: 0.8403E-01   D at  105  2
       a =-11.000      CL = -0.3519
      Cm = -0.0170     CD =  0.12135   =>   CDf =  0.00715    CDp =  0.11420

 Side 1 forced transition at x/c =  0.9997   74
 Side 2  free  transition at x/c =  0.1816   35

  53   rms: 0.3473E-02   max: 0.1971E-01   D at  110  2
       a =-11.000      CL = -0.3517
      Cm = -0.0175     CD =  0.11979   =>   CDf =  0.00721    CDp =  0.11258

 Side 1 forced transition at x/c =  0.9997   74
 Side 2  free  transition at x/c =  0.1828   36

  54   rms: 0.7030E-01   max: 0.3416E+00   T at   36  2
       a =-11.000      CL = -0.3624
      Cm = -0.0159     CD =  0.12418   =>   CDf =  0.00718    CDp =  0.11699

 Side 1 forced transition at x/c =  0.9997   74
 Side 2  free  transition at x/c =  0.1813   35

  55   rms: 0.2472E-01   max: 0.8412E-01   D at  105  2
       a =-11.000      CL = -0.3520
      Cm = -0.0170     CD =  0.12136   =>   CDf =  0.00715    CDp =  0.11420

 Side 1 forced transition at x/c =  0.9997   74
 Side 2  free  transition at x/c =  0.1816   35

  56   rms: 0.3500E-02   max: 0.1976E-01   D at  110  2
       a =-11.000      CL = -0.3517
      Cm = -0.0175     CD =  0.11979   =>   CDf =  0.00721    CDp =  0.11258

 Side 1 forced transition at x/c =  0.9997   74
 Side 2  free  transition at x/c =  0.1828   36

  57   rms: 0.7029E-01   max: 0.3415E+00   T at   36  2
       a =-11.000      CL = -0.3623
      Cm = -0.0159     CD =  0.12417   =>   CDf =  0.00718    CDp =  0.11699

 Side 1 forced transition at x/c =  0.9997   74
 Side 2  free  transition at x/c =  0.1813   35

  58   rms: 0.2467E-01   max: 0.8399E-01   D at  105  2
       a =-11.000      CL = -0.3520
      Cm = -0.0170     CD =  0.12135   =>   CDf =  0.00715    CDp =  0.11420

 Side 1 forced transition at x/c =  0.9997   74
 Side 2  free  transition at x/c =  0.1816   35

  59   rms: 0.3503E-02   max: 0.1970E-01   D at  110  2
       a =-11.000      CL = -0.3517
      Cm = -0.0175     CD =  0.11979   =>   CDf =  0.00721    CDp =  0.11258

 Side 1 forced transition at x/c =  0.9997   74
 Side 2  free  transition at x/c =  0.1828   36

  60   rms: 0.7033E-01   max: 0.3419E+00   T at   36  2
       a =-11.000      CL = -0.3624
      Cm = -0.0159     CD =  0.12418   =>   CDf =  0.00718    CDp =  0.11699

 Side 1 forced transition at x/c =  0.9997   74
 Side 2  free  transition at x/c =  0.1813   35

  61   rms: 0.2475E-01   max: 0.8420E-01   D at  105  2
       a =-11.000      CL = -0.3519
      Cm = -0.0170     CD =  0.12135   =>   CDf =  0.00715    CDp =  0.11420

 Side 1 forced transition at x/c =  0.9997   74
 Side 2  free  transition at x/c =  0.1816   35

  62   rms: 0.3494E-02   max: 0.1972E-01   D at  110  2
       a =-11.000      CL = -0.3517
      Cm = -0.0175     CD =  0.11979   =>   CDf =  0.00721    CDp =  0.11258

 Side 1 forced transition at x/c =  0.9997   74
 Side 2  free  transition at x/c =  0.1828   36

  63   rms: 0.7032E-01   max: 0.3417E+00   T at   36  2
       a =-11.000      CL = -0.3623
      Cm = -0.0159     CD =  0.12418   =>   CDf =  0.00718    CDp =  0.11699

 Side 1 forced transition at x/c =  0.9997   74
 Side 2  free  transition at x/c =  0.1813   35

  64   rms: 0.2472E-01   max: 0.8413E-01   D at  105  2
       a =-11.000      CL = -0.3519
      Cm = -0.0170     CD =  0.12136   =>   CDf =  0.00715    CDp =  0.11420

 Side 1 forced transition at x/c =  0.9997   74
 Side 2  free  transition at x/c =  0.1816   35

  65   rms: 0.3521E-02   max: 0.1986E-01   D at  110  2
       a =-11.000      CL = -0.3517
      Cm = -0.0175     CD =  0.11979   =>   CDf =  0.00721    CDp =  0.11258

 Side 1 forced transition at x/c =  0.9997   74
 Side 2  free  transition at x/c =  0.1828   36

  66   rms: 0.7032E-01   max: 0.3417E+00   T at   36  2
       a =-11.000      CL = -0.3624
      Cm = -0.0159     CD =  0.12418   =>   CDf =  0.00718    CDp =  0.11699

 Side 1 forced transition at x/c =  0.9997   74
 Side 2  free  transition at x/c =  0.1813   35

  67   rms: 0.2473E-01   max: 0.8412E-01   D at  105  2
       a =-11.000      CL = -0.3519
      Cm = -0.0170     CD =  0.12135   =>   CDf =  0.00715    CDp =  0.11420

 Side 1 forced transition at x/c =  0.9997   74
 Side 2  free  transition at x/c =  0.1816   35

  68   rms: 0.3456E-02   max: 0.1961E-01   D at  110  2
       a =-11.000      CL = -0.3517
      Cm = -0.0175     CD =  0.11979   =>   CDf =  0.00721    CDp =  0.11258

 Side 1 forced transition at x/c =  0.9997   74
 Side 2  free  transition at x/c =  0.1828   36

  69   rms: 0.7029E-01   max: 0.3415E+00   T at   36  2
       a =-11.000      CL = -0.3623
      Cm = -0.0159     CD =  0.12417   =>   CDf =  0.00718    CDp =  0.11699

 Side 1 forced transition at x/c =  0.9997   74
 Side 2  free  transition at x/c =  0.1813   35

  70   rms: 0.2468E-01   max: 0.8398E-01   D at  105  2
       a =-11.000      CL = -0.3519
      Cm = -0.0170     CD =  0.12135   =>   CDf =  0.00715    CDp =  0.11419

 Side 1 forced transition at x/c =  0.9997   74
 Side 2  free  transition at x/c =  0.1816   35

  71   rms: 0.3452E-02   max: 0.1954E-01   D at  110  2
       a =-11.000      CL = -0.3517
      Cm = -0.0175     CD =  0.11979   =>   CDf =  0.00721    CDp =  0.11258

 Side 1 forced transition at x/c =  0.9997   74
 Side 2  free  transition at x/c =  0.1828   36

  72   rms: 0.7032E-01   max: 0.3419E+00   T at   36  2
       a =-11.000      CL = -0.3624
      Cm = -0.0159     CD =  0.12418   =>   CDf =  0.00718    CDp =  0.11699

 Side 1 forced transition at x/c =  0.9997   74
 Side 2  free  transition at x/c =  0.1813   35

  73   rms: 0.2476E-01   max: 0.8418E-01   D at  105  2
       a =-11.000      CL = -0.3519
      Cm = -0.0170     CD =  0.12135   =>   CDf =  0.00715    CDp =  0.11420

 Side 1 forced transition at x/c =  0.9997   74
 Side 2  free  transition at x/c =  0.1816   35

  74   rms: 0.3467E-02   max: 0.1952E-01   D at  110  2
       a =-11.000      CL = -0.3517
      Cm = -0.0175     CD =  0.11979   =>   CDf =  0.00721    CDp =  0.11258

 Side 1 forced transition at x/c =  0.9997   74
 Side 2  free  transition at x/c =  0.1828   36

  75   rms: 0.7032E-01   max: 0.3418E+00   T at   36  2
       a =-11.000      CL = -0.3624
      Cm = -0.0159     CD =  0.12418   =>   CDf =  0.00718    CDp =  0.11699

 Side 1 forced transition at x/c =  0.9997   74
 Side 2  free  transition at x/c =  0.1813   35

  76   rms: 0.2475E-01   max: 0.8417E-01   D at  105  2
       a =-11.000      CL = -0.3519
      Cm = -0.0170     CD =  0.12136   =>   CDf =  0.00715    CDp =  0.11420

 Side 1 forced transition at x/c =  0.9997   74
 Side 2  free  transition at x/c =  0.1816   35

  77   rms: 0.3445E-02   max: 0.1966E-01   D at  110  2
       a =-11.000      CL = -0.3517
      Cm = -0.0175     CD =  0.11979   =>   CDf =  0.00721    CDp =  0.11258

 Side 1 forced transition at x/c =  0.9997   74
 Side 2  free  transition at x/c =  0.1828   36

  78   rms: 0.7027E-01   max: 0.3413E+00   T at   36  2
       a =-11.000      CL = -0.3623
      Cm = -0.0159     CD =  0.12417   =>   CDf =  0.00718    CDp =  0.11699

 Side 1 forced transition at x/c =  0.9997   74
 Side 2  free  transition at x/c =  0.1813   35

  79   rms: 0.2466E-01   max: 0.8396E-01   D at  105  2
       a =-11.000      CL = -0.3519
      Cm = -0.0170     CD =  0.12135   =>   CDf =  0.00715    CDp =  0.11419

 Side 1 forced transition at x/c =  0.9997   74
 Side 2  free  transition at x/c =  0.1816   35

  80   rms: 0.3458E-02   max: 0.1959E-01   D at  110  2
       a =-11.000      CL = -0.3517
      Cm = -0.0175     CD =  0.11979   =>   CDf =  0.00721    CDp =  0.11258

 Side 1 forced transition at x/c =  0.9997   74
 Side 2  free  transition at x/c =  0.1828   36

  81   rms: 0.7029E-01   max: 0.3416E+00   T at   36  2
       a =-11.000      CL = -0.3623
      Cm = -0.0159     CD =  0.12418   =>   CDf =  0.00718    CDp =  0.11699

 Side 1 forced transition at x/c =  0.9997   74
 Side 2  free  transition at x/c =  0.1813   35

  82   rms: 0.2471E-01   max: 0.8410E-01   D at  105  2
       a =-11.000      CL = -0.3519
      Cm = -0.0170     CD =  0.12136   =>   CDf =  0.00715    CDp =  0.11420

 Side 1 forced transition at x/c =  0.9997   74
 Side 2  free  transition at x/c =  0.1816   35

  83   rms: 0.3485E-02   max: 0.1972E-01   D at  110  2
       a =-11.000      CL = -0.3517
      Cm = -0.0175     CD =  0.11979   =>   CDf =  0.00721    CDp =  0.11258

 Side 1 forced transition at x/c =  0.9997   74
 Side 2  free  transition at x/c =  0.1828   36

  84   rms: 0.7030E-01   max: 0.3415E+00   T at   36  2
       a =-11.000      CL = -0.3623
      Cm = -0.0159     CD =  0.12417   =>   CDf =  0.00718    CDp =  0.11699

 Side 1 forced transition at x/c =  0.9997   74
 Side 2  free  transition at x/c =  0.1813   35

  85   rms: 0.2467E-01   max: 0.8398E-01   D at  105  2
       a =-11.000      CL = -0.3519
      Cm = -0.0170     CD =  0.12135   =>   CDf =  0.00715    CDp =  0.11420

 Side 1 forced transition at x/c =  0.9997   74
 Side 2  free  transition at x/c =  0.1816   35

  86   rms: 0.3473E-02   max: 0.1964E-01   D at  110  2
       a =-11.000      CL = -0.3517
      Cm = -0.0175     CD =  0.11979   =>   CDf =  0.00721    CDp =  0.11258

 Side 1 forced transition at x/c =  0.9997   74
 Side 2  free  transition at x/c =  0.1828   36

  87   rms: 0.7027E-01   max: 0.3411E+00   T at   36  2
       a =-11.000      CL = -0.3623
      Cm = -0.0159     CD =  0.12417   =>   CDf =  0.00718    CDp =  0.11699

 Side 1 forced transition at x/c =  0.9997   74
 Side 2  free  transition at x/c =  0.1813   35

  88   rms: 0.2462E-01   max: 0.8382E-01   D at  105  2
       a =-11.000      CL = -0.3519
      Cm = -0.0170     CD =  0.12134   =>   CDf =  0.00715    CDp =  0.11418

 Side 1 forced transition at x/c =  0.9997   74
 Side 2  free  transition at x/c =  0.1816   35

  89   rms: 0.3414E-02   max: 0.1936E-01   D at  110  2
       a =-11.000      CL = -0.3517
      Cm = -0.0175     CD =  0.11979   =>   CDf =  0.00721    CDp =  0.11258

 Side 1 forced transition at x/c =  0.9997   74
 Side 2  free  transition at x/c =  0.1828   36

  90   rms: 0.7034E-01   max: 0.3420E+00   T at   36  2
       a =-11.000      CL = -0.3624
      Cm = -0.0159     CD =  0.12418   =>   CDf =  0.00718    CDp =  0.11700

 Side 1 forced transition at x/c =  0.9997   74
 Side 2  free  transition at x/c =  0.1813   35

  91   rms: 0.2480E-01   max: 0.8434E-01   D at  105  2
       a =-11.000      CL = -0.3519
      Cm = -0.0170     CD =  0.12136   =>   CDf =  0.00715    CDp =  0.11421

 Side 1 forced transition at x/c =  0.9997   74
 Side 2  free  transition at x/c =  0.1816   35

  92   rms: 0.3487E-02   max: 0.1970E-01   D at  110  2
       a =-11.000      CL = -0.3517
      Cm = -0.0175     CD =  0.11979   =>   CDf =  0.00721    CDp =  0.11258

 Side 1 forced transition at x/c =  0.9997   74
 Side 2  free  transition at x/c =  0.1828   36

  93   rms: 0.7033E-01   max: 0.3419E+00   T at   36  2
       a =-11.000      CL = -0.3624
      Cm = -0.0159     CD =  0.12418   =>   CDf =  0.00718    CDp =  0.11699

 Side 1 forced transition at x/c =  0.9997   74
 Side 2  free  transition at x/c =  0.1813   35

  94   rms: 0.2477E-01   max: 0.8421E-01   D at  105  2
       a =-11.000      CL = -0.3519
      Cm = -0.0170     CD =  0.12135   =>   CDf =  0.00715    CDp =  0.11420

 Side 1 forced transition at x/c =  0.9997   74
 Side 2  free  transition at x/c =  0.1816   35

  95   rms: 0.3464E-02   max: 0.1956E-01   D at  110  2
       a =-11.000      CL = -0.3517
      Cm = -0.0175     CD =  0.11979   =>   CDf =  0.00721    CDp =  0.11258

 Side 1 forced transition at x/c =  0.9997   74
 Side 2  free  transition at x/c =  0.1828   36

  96   rms: 0.7031E-01   max: 0.3418E+00   T at   36  2
       a =-11.000      CL = -0.3624
      Cm = -0.0159     CD =  0.12418   =>   CDf =  0.00718    CDp =  0.11699

 Side 1 forced transition at x/c =  0.9997   74
 Side 2  free  transition at x/c =  0.1813   35

  97   rms: 0.2474E-01   max: 0.8415E-01   D at  105  2
       a =-11.000      CL = -0.3519
      Cm = -0.0170     CD =  0.12135   =>   CDf =  0.00715    CDp =  0.11420

 Side 1 forced transition at x/c =  0.9997   74
 Side 2  free  transition at x/c =  0.1816   35

  98   rms: 0.3489E-02   max: 0.1962E-01   D at  110  2
       a =-11.000      CL = -0.3517
      Cm = -0.0175     CD =  0.11979   =>   CDf =  0.00721    CDp =  0.11258

 Side 1 forced transition at x/c =  0.9997   74
 Side 2  free  transition at x/c =  0.1828   36

  99   rms: 0.7032E-01   max: 0.3417E+00   T at   36  2
       a =-11.000      CL = -0.3624
      Cm = -0.0159     CD =  0.12418   =>   CDf =  0.00718    CDp =  0.11699

 Side 1 forced transition at x/c =  0.9997   74
 Side 2  free  transition at x/c =  0.1813   35

 100   rms: 0.2473E-01   max: 0.8412E-01   D at  105  2
       a =-11.000      CL = -0.3520
      Cm = -0.0170     CD =  0.12135   =>   CDf =  0.00715    CDp =  0.11419

 Side 1 forced transition at x/c =  0.9997   74
 Side 2  free  transition at x/c =  0.1816   35

 101   rms: 0.3470E-02   max: 0.1955E-01   D at  110  2
       a =-11.000      CL = -0.3517
      Cm = -0.0175     CD =  0.11979   =>   CDf =  0.00721    CDp =  0.11258

 Side 1 forced transition at x/c =  0.9997   74
 Side 2  free  transition at x/c =  0.1828   36

 102   rms: 0.7033E-01   max: 0.3419E+00   T at   36  2
       a =-11.000      CL = -0.3624
      Cm = -0.0159     CD =  0.12418   =>   CDf =  0.00718    CDp =  0.11699

 Side 1 forced transition at x/c =  0.9997   74
 Side 2  free  transition at x/c =  0.1813   35

 103   rms: 0.2476E-01   max: 0.8417E-01   D at  105  2
       a =-11.000      CL = -0.3519
      Cm = -0.0170     CD =  0.12135   =>   CDf =  0.00715    CDp =  0.11419

 Side 1 forced transition at x/c =  0.9997   74
 Side 2  free  transition at x/c =  0.1816   35

 104   rms: 0.3429E-02   max: 0.1926E-01   D at  110  2
       a =-11.000      CL = -0.3517
      Cm = -0.0175     CD =  0.11979   =>   CDf =  0.00721    CDp =  0.11258

 Side 1 forced transition at x/c =  0.9997   74
 Side 2  free  transition at x/c =  0.1828   36

 105   rms: 0.7031E-01   max: 0.3416E+00   T at   36  2
       a =-11.000      CL = -0.3623
      Cm = -0.0159     CD =  0.12417   =>   CDf =  0.00718    CDp =  0.11699

 Side 1 forced transition at x/c =  0.9997   74
 Side 2  free  transition at x/c =  0.1813   35

 106   rms: 0.2468E-01   max: 0.8396E-01   D at  105  2
       a =-11.000      CL = -0.3519
      Cm = -0.0170     CD =  0.12133   =>   CDf =  0.00715    CDp =  0.11418

 Side 1 forced transition at x/c =  0.9997   74
 Side 2  free  transition at x/c =  0.1816   35

 107   rms: 0.3425E-02   max: 0.1913E-01   D at  110  2
       a =-11.000      CL = -0.3517
      Cm = -0.0175     CD =  0.11979   =>   CDf =  0.00721    CDp =  0.11258

 Side 1 forced transition at x/c =  0.9997   74
 Side 2  free  transition at x/c =  0.1828   36

 108   rms: 0.7032E-01   max: 0.3418E+00   T at   36  2
       a =-11.000      CL = -0.3624
      Cm = -0.0159     CD =  0.12418   =>   CDf =  0.00718    CDp =  0.11699

 Side 1 forced transition at x/c =  0.9997   74
 Side 2  free  transition at x/c =  0.1813   35

 109   rms: 0.2474E-01   max: 0.8415E-01   D at  105  2
       a =-11.000      CL = -0.3519
      Cm = -0.0170     CD =  0.12135   =>   CDf =  0.00715    CDp =  0.11419

 Side 1 forced transition at x/c =  0.9997   74
 Side 2  free  transition at x/c =  0.1816   35

 110   rms: 0.3486E-02   max: 0.1951E-01   D at  110  2
       a =-11.000      CL = -0.3517
      Cm = -0.0175     CD =  0.11979   =>   CDf =  0.00721    CDp =  0.11258

 Side 1 forced transition at x/c =  0.9997   74
 Side 2  free  transition at x/c =  0.1828   36

 111   rms: 0.7030E-01   max: 0.3415E+00   T at   36  2
       a =-11.000      CL = -0.3623
      Cm = -0.0159     CD =  0.12417   =>   CDf =  0.00718    CDp =  0.11699

 Side 1 forced transition at x/c =  0.9997   74
 Side 2  free  transition at x/c =  0.1813   35

 112   rms: 0.2467E-01   max: 0.8399E-01   D at  105  2
       a =-11.000      CL = -0.3519
      Cm = -0.0170     CD =  0.12135   =>   CDf =  0.00715    CDp =  0.11419

 Side 1 forced transition at x/c =  0.9997   74
 Side 2  free  transition at x/c =  0.1816   35

 113   rms: 0.3445E-02   max: 0.1958E-01   D at  110  2
       a =-11.000      CL = -0.3517
      Cm = -0.0175     CD =  0.11979   =>   CDf =  0.00721    CDp =  0.11258

 Side 1 forced transition at x/c =  0.9997   74
 Side 2  free  transition at x/c =  0.1828   36

 114   rms: 0.7026E-01   max: 0.3413E+00   T at   36  2
       a =-11.000      CL = -0.3623
      Cm = -0.0159     CD =  0.12417   =>   CDf =  0.00718    CDp =  0.11699

 Side 1 forced transition at x/c =  0.9997   74
 Side 2  free  transition at x/c =  0.1813   35

 115   rms: 0.2466E-01   max: 0.8394E-01   D at  105  2
       a =-11.000      CL = -0.3519
      Cm = -0.0170     CD =  0.12135   =>   CDf =  0.00715    CDp =  0.11419

 Side 1 forced transition at x/c =  0.9997   74
 Side 2  free  transition at x/c =  0.1816   35

 116   rms: 0.3456E-02   max: 0.1958E-01   D at  110  2
       a =-11.000      CL = -0.3517
      Cm = -0.0175     CD =  0.11979   =>   CDf =  0.00721    CDp =  0.11258

 Side 1 forced transition at x/c =  0.9997   74
 Side 2  free  transition at x/c =  0.1828   36

 117   rms: 0.7033E-01   max: 0.3419E+00   T at   36  2
       a =-11.000      CL = -0.3624
      Cm = -0.0159     CD =  0.12418   =>   CDf =  0.00718    CDp =  0.11699

 Side 1 forced transition at x/c =  0.9997   74
 Side 2  free  transition at x/c =  0.1813   35

 118   rms: 0.2477E-01   max: 0.8420E-01   D at  105  2
       a =-11.000      CL = -0.3519
      Cm = -0.0170     CD =  0.12135   =>   CDf =  0.00715    CDp =  0.11419

 Side 1 forced transition at x/c =  0.9997   74
 Side 2  free  transition at x/c =  0.1816   35

 119   rms: 0.3433E-02   max: 0.1933E-01   D at  110  2
       a =-11.000      CL = -0.3517
      Cm = -0.0175     CD =  0.11979   =>   CDf =  0.00721    CDp =  0.11258

 Side 1 forced transition at x/c =  0.9997   74
 Side 2  free  transition at x/c =  0.1828   36

 120   rms: 0.7030E-01   max: 0.3415E+00   T at   36  2
       a =-11.000      CL = -0.3623
      Cm = -0.0159     CD =  0.12418   =>   CDf =  0.00718    CDp =  0.11699

 Side 1 forced transition at x/c =  0.9997   74
 Side 2  free  transition at x/c =  0.1813   35

 121   rms: 0.2468E-01   max: 0.8401E-01   D at  105  2
       a =-11.000      CL = -0.3519
      Cm = -0.0170     CD =  0.12135   =>   CDf =  0.00715    CDp =  0.11420

 Side 1 forced transition at x/c =  0.9997   74
 Side 2  free  transition at x/c =  0.1816   35

 122   rms: 0.3445E-02   max: 0.1960E-01   D at  110  2
       a =-11.000      CL = -0.3517
      Cm = -0.0175     CD =  0.11979   =>   CDf =  0.00721    CDp =  0.11258

 Side 1 forced transition at x/c =  0.9997   74
 Side 2  free  transition at x/c =  0.1828   36

 123   rms: 0.7029E-01   max: 0.3414E+00   T at   36  2
       a =-11.000      CL = -0.3623
      Cm = -0.0159     CD =  0.12417   =>   CDf =  0.00718    CDp =  0.11699

 Side 1 forced transition at x/c =  0.9997   74
 Side 2  free  transition at x/c =  0.1813   35

 124   rms: 0.2467E-01   max: 0.8397E-01   D at  105  2
       a =-11.000      CL = -0.3519
      Cm = -0.0170     CD =  0.12135   =>   CDf =  0.00715    CDp =  0.11419

 Side 1 forced transition at x/c =  0.9997   74
 Side 2  free  transition at x/c =  0.1816   35

 125   rms: 0.3425E-02   max: 0.1945E-01   D at  110  2
       a =-11.000      CL = -0.3517
      Cm = -0.0175     CD =  0.11979   =>   CDf =  0.00721    CDp =  0.11258

 Side 1 forced transition at x/c =  0.9997   74
 Side 2  free  transition at x/c =  0.1828   36

 126   rms: 0.7031E-01   max: 0.3417E+00   T at   36  2
       a =-11.000      CL = -0.3624
      Cm = -0.0159     CD =  0.12418   =>   CDf =  0.00718    CDp =  0.11699

 Side 1 forced transition at x/c =  0.9997   74
 Side 2  free  transition at x/c =  0.1813   35

 127   rms: 0.2474E-01   max: 0.8417E-01   D at  105  2
       a =-11.000      CL = -0.3519
      Cm = -0.0170     CD =  0.12136   =>   CDf =  0.00715    CDp =  0.11420

 Side 1 forced transition at x/c =  0.9997   74
 Side 2  free  transition at x/c =  0.1816   35

 128   rms: 0.3483E-02   max: 0.1963E-01   D at  110  2
       a =-11.000      CL = -0.3517
      Cm = -0.0175     CD =  0.11979   =>   CDf =  0.00721    CDp =  0.11258

 Side 1 forced transition at x/c =  0.9997   74
 Side 2  free  transition at x/c =  0.1828   36

 129   rms: 0.7030E-01   max: 0.3415E+00   T at   36  2
       a =-11.000      CL = -0.3623
      Cm = -0.0159     CD =  0.12417   =>   CDf =  0.00718    CDp =  0.11699

 Side 1 forced transition at x/c =  0.9997   74
 Side 2  free  transition at x/c =  0.1813   35

 130   rms: 0.2469E-01   max: 0.8404E-01   D at  105  2
       a =-11.000      CL = -0.3519
      Cm = -0.0170     CD =  0.12135   =>   CDf =  0.00715    CDp =  0.11420

 Side 1 forced transition at x/c =  0.9997   74
 Side 2  free  transition at x/c =  0.1816   35

 131   rms: 0.3482E-02   max: 0.1960E-01   D at  110  2
       a =-11.000      CL = -0.3517
      Cm = -0.0175     CD =  0.11979   =>   CDf =  0.00721    CDp =  0.11258

 Side 1 forced transition at x/c =  0.9997   74
 Side 2  free  transition at x/c =  0.1828   36

 132   rms: 0.7029E-01   max: 0.3414E+00   T at   36  2
       a =-11.000      CL = -0.3623
      Cm = -0.0159     CD =  0.12417   =>   CDf =  0.00718    CDp =  0.11699

 Side 1 forced transition at x/c =  0.9997   74
 Side 2  free  transition at x/c =  0.1813   35

 133   rms: 0.2467E-01   max: 0.8395E-01   D at  105  2
       a =-11.000      CL = -0.3519
      Cm = -0.0170     CD =  0.12134   =>   CDf =  0.00715    CDp =  0.11419

 Side 1 forced transition at x/c =  0.9997   74
 Side 2  free  transition at x/c =  0.1816   35

 134   rms: 0.3425E-02   max: 0.1937E-01   D at  110  2
       a =-11.000      CL = -0.3517
      Cm = -0.0175     CD =  0.11979   =>   CDf =  0.00721    CDp =  0.11258

 Side 1 forced transition at x/c =  0.9997   74
 Side 2  free  transition at x/c =  0.1828   36

 135   rms: 0.7030E-01   max: 0.3416E+00   T at   36  2
       a =-11.000      CL = -0.3624
      Cm = -0.0159     CD =  0.12418   =>   CDf =  0.00718    CDp =  0.11699

 Side 1 forced transition at x/c =  0.9997   74
 Side 2  free  transition at x/c =  0.1813   35

 136   rms: 0.2472E-01   max: 0.8409E-01   D at  105  2
       a =-11.000      CL = -0.3519
      Cm = -0.0170     CD =  0.12135   =>   CDf =  0.00715    CDp =  0.11420

 Side 1 forced transition at x/c =  0.9997   74
 Side 2  free  transition at x/c =  0.1816   35

 137   rms: 0.3481E-02   max: 0.1957E-01   D at  110  2
       a =-11.000      CL = -0.3517
      Cm = -0.0175     CD =  0.11979   =>   CDf =  0.00721    CDp =  0.11258

 Side 1 forced transition at x/c =  0.9997   74
 Side 2  free  transition at x/c =  0.1828   36

 138   rms: 0.7031E-01   max: 0.3417E+00   T at   36  2
       a =-11.000      CL = -0.3624
      Cm = -0.0159     CD =  0.12418   =>   CDf =  0.00718    CDp =  0.11699

 Side 1 forced transition at x/c =  0.9997   74
 Side 2  free  transition at x/c =  0.1813   35

 139   rms: 0.2472E-01   max: 0.8412E-01   D at  105  2
       a =-11.000      CL = -0.3519
      Cm = -0.0170     CD =  0.12136   =>   CDf =  0.00715    CDp =  0.11420

 Side 1 forced transition at x/c =  0.9997   74
 Side 2  free  transition at x/c =  0.1816   35

 140   rms: 0.3477E-02   max: 0.1966E-01   D at  110  2
       a =-11.000      CL = -0.3517
      Cm = -0.0175     CD =  0.11979   =>   CDf =  0.00721    CDp =  0.11258

 Side 1 forced transition at x/c =  0.9997   74
 Side 2  free  transition at x/c =  0.1828   36

 141   rms: 0.7027E-01   max: 0.3413E+00   T at   36  2
       a =-11.000      CL = -0.3623
      Cm = -0.0159     CD =  0.12417   =>   CDf =  0.00718    CDp =  0.11699

 Side 1 forced transition at x/c =  0.9997   74
 Side 2  free  transition at x/c =  0.1813   35

 142   rms: 0.2465E-01   max: 0.8387E-01   D at  105  2
       a =-11.000      CL = -0.3519
      Cm = -0.0170     CD =  0.12133   =>   CDf =  0.00715    CDp =  0.11418

 Side 1 forced transition at x/c =  0.9997   74
 Side 2  free  transition at x/c =  0.1816   35

 143   rms: 0.3380E-02   max: 0.1903E-01   D at  110  2
       a =-11.000      CL = -0.3517
      Cm = -0.0175     CD =  0.11979   =>   CDf =  0.00721    CDp =  0.11258

 Side 1 forced transition at x/c =  0.9997   74
 Side 2  free  transition at x/c =  0.1828   36

 144   rms: 0.7029E-01   max: 0.3414E+00   T at   36  2
       a =-11.000      CL = -0.3623
      Cm = -0.0159     CD =  0.12418   =>   CDf =  0.00718    CDp =  0.11699

 Side 1 forced transition at x/c =  0.9997   74
 Side 2  free  transition at x/c =  0.1813   35

 145   rms: 0.2467E-01   max: 0.8397E-01   D at  105  2
       a =-11.000      CL = -0.3519
      Cm = -0.0170     CD =  0.12134   =>   CDf =  0.00715    CDp =  0.11419

 Side 1 forced transition at x/c =  0.9997   74
 Side 2  free  transition at x/c =  0.1816   35

 146   rms: 0.3430E-02   max: 0.1927E-01   D at  110  2
       a =-11.000      CL = -0.3517
      Cm = -0.0175     CD =  0.11979   =>   CDf =  0.00721    CDp =  0.11258

 Side 1 forced transition at x/c =  0.9997   74
 Side 2  free  transition at x/c =  0.1828   36

 147   rms: 0.7028E-01   max: 0.3414E+00   T at   36  2
       a =-11.000      CL = -0.3623
      Cm = -0.0159     CD =  0.12417   =>   CDf =  0.00718    CDp =  0.11699

 Side 1 forced transition at x/c =  0.9997   74
 Side 2  free  transition at x/c =  0.1813   35

 148   rms: 0.2468E-01   max: 0.8399E-01   D at  105  2
       a =-11.000      CL = -0.3520
      Cm = -0.0170     CD =  0.12134   =>   CDf =  0.00715    CDp =  0.11419

 Side 1 forced transition at x/c =  0.9997   74
 Side 2  free  transition at x/c =  0.1816   35

 149   rms: 0.3481E-02   max: 0.1939E-01   D at  110  2
       a =-11.000      CL = -0.3517
      Cm = -0.0175     CD =  0.11979   =>   CDf =  0.00721    CDp =  0.11258

 Side 1 forced transition at x/c =  0.9997   74
 Side 2  free  transition at x/c =  0.1828   36

 150   rms: 0.7026E-01   max: 0.3411E+00   T at   36  2
       a =-11.000      CL = -0.3623
      Cm = -0.0159     CD =  0.12417   =>   CDf =  0.00718    CDp =  0.11699

 Side 1 forced transition at x/c =  0.9997   74
 Side 2  free  transition at x/c =  0.1813   35

 151   rms: 0.2459E-01   max: 0.8379E-01   D at  105  2
       a =-11.000      CL = -0.3519
      Cm = -0.0170     CD =  0.12134   =>   CDf =  0.00715    CDp =  0.11419

 Side 1 forced transition at x/c =  0.9997   74
 Side 2  free  transition at x/c =  0.1816   35

 152   rms: 0.3455E-02   max: 0.1961E-01   D at  110  2
       a =-11.000      CL = -0.3517
      Cm = -0.0175     CD =  0.11979   =>   CDf =  0.00721    CDp =  0.11258

 Side 1 forced transition at x/c =  0.9997   74
 Side 2  free  transition at x/c =  0.1828   36

 153   rms: 0.7026E-01   max: 0.3412E+00   T at   36  2
       a =-11.000      CL = -0.3623
      Cm = -0.0159     CD =  0.12417   =>   CDf =  0.00718    CDp =  0.11699

 Side 1 forced transition at x/c =  0.9997   74
 Side 2  free  transition at x/c =  0.1813   35

 154   rms: 0.2466E-01   max: 0.8391E-01   D at  105  2
       a =-11.000      CL = -0.3519
      Cm = -0.0170     CD =  0.12134   =>   CDf =  0.00715    CDp =  0.11418

 Side 1 forced transition at x/c =  0.9997   74
 Side 2  free  transition at x/c =  0.1816   35

 155   rms: 0.3419E-02   max: 0.1926E-01   D at  110  2
       a =-11.000      CL = -0.3517
      Cm = -0.0175     CD =  0.11979   =>   CDf =  0.00721    CDp =  0.11258

 Side 1 forced transition at x/c =  0.9997   74
 Side 2  free  transition at x/c =  0.1828   36

 156   rms: 0.7026E-01   max: 0.3412E+00   T at   36  2
       a =-11.000      CL = -0.3623
      Cm = -0.0159     CD =  0.12417   =>   CDf =  0.00718    CDp =  0.11699

 Side 1 forced transition at x/c =  0.9997   74
 Side 2  free  transition at x/c =  0.1813   35

 157   rms: 0.2463E-01   max: 0.8387E-01   D at  105  2
       a =-11.000      CL = -0.3520
      Cm = -0.0170     CD =  0.12134   =>   CDf =  0.00715    CDp =  0.11419

 Side 1 forced transition at x/c =  0.9997   74
[...]
 MRCHDU: Convergence failed at  80  side 1    Res =  0.3714E+01
 MRCHDU: Convergence failed at  81  side 1    Res =  0.3195E+01
 MRCHDU: Convergence failed at  82  side 1    Res =  0.2799E+01
 MRCHDU: Convergence failed at  83  side 1    Res =  0.2450E+01
 MRCHDU: Convergence failed at  84  side 1    Res =  0.2213E+01
 MRCHDU: Convergence failed at  85  side 1    Res =  0.1962E+01
 MRCHDU: Convergence failed at  86  side 1    Res =  0.1773E+01
 MRCHDU: Convergence failed at  87  side 1    Res =  0.1643E+01
 MRCHDU: Convergence failed at  88  side 1    Res =  0.1397E+01
 MRCHDU: Convergence failed at  89  side 1    Res =  0.1473E+01
 MRCHDU: Convergence failed at  90  side 1    Res =  0.1541E+01
 MRCHDU: Convergence failed at  91  side 1    Res =  0.1615E+01
 MRCHDU: Convergence failed at  92  side 1    Res =  0.1792E+01
 Side 1  free  transition at x/c =  0.1747   37
 Side 2 forced transition at x/c =  1.0003   70
 idif Ue xi dudx           1  0.13754751      5.74672222E-03   23.934950    
 Uenew xinew           2  1.80269498E-02  7.53164291E-04

  49   rms: 0.7210E+00   max: 0.1951E+01   D at   92  1   RLX: 0.294
       a = 10.000      CL =  1.2564
      Cm = -0.0840     CD =  0.09369   =>   CDf =  0.00729    CDp =  0.08640

 Side 1  free  transition at x/c =  0.1864   37
 Side 2 forced transition at x/c =  1.0003   71

  50   rms: 0.1378E+00   max: 0.6177E+00   T at   37  1
       a = 10.000      CL =  1.1397
      Cm = -0.0180     CD =  0.08644   =>   CDf =  0.00631    CDp =  0.08013

 Side 1  free  transition at x/c =  0.1822   36
 Side 2 forced transition at x/c =  1.0003   71

  51   rms: 0.2267E+00   max: 0.7372E+00   D at   44  1   RLX: 0.860
       a = 10.000      CL =  1.0852
      Cm = -0.0374     CD =  0.11754   =>   CDf =  0.00686    CDp =  0.11068

 Side 1  free  transition at x/c =  0.1911   37
 Side 2 forced transition at x/c =  1.0003   71

  52   rms: 0.1525E+01   max: 0.5043E+01   D at   91  1   RLX: 0.276
       a = 10.000      CL =  1.1513
      Cm = -0.0617     CD =  0.11834   =>   CDf =  0.00785    CDp =  0.11049

 Side 1  free  transition at x/c =  0.2597   43
 Side 2 forced transition at x/c =  1.0003   71

  53   rms: 0.4347E+00   max: 0.1582E+01   T at   43  1   RLX: 0.948
       a = 10.000      CL =  1.1799
      Cm = -0.0444     CD =  0.14537   =>   CDf =  0.00691    CDp =  0.13846

 MRCHDU: Convergence failed at  69  side 1    Res =  0.9332E+00
 MRCHDU: Convergence failed at  70  side 1    Res =  0.1184E+01
 MRCHDU: Convergence failed at  71  side 1    Res =  0.1368E+01
 MRCHDU: Convergence failed at  72  side 1    Res =  0.1601E+01
 MRCHDU: Convergence failed at  73  side 1    Res =  0.1837E+01
 MRCHDU: Convergence failed at  74  side 1    Res =  0.2055E+01
 MRCHDU: Convergence failed at  75  side 1    Res =  0.2290E+01
 MRCHDU: Convergence failed at  76  side 1    Res =  0.2493E+01
 MRCHDU: Convergence failed at  77  side 1    Res =  0.2703E+01
 MRCHDU: Convergence failed at  78  side 1    Res =  0.2821E+01
 MRCHDU: Convergence failed at  79  side 1    Res =  0.2938E+01
 MRCHDU: Convergence failed at  80  side 1    Res =  0.2687E+01
 MRCHDU: Convergence failed at  81  side 1    Res =  0.2556E+01
 MRCHDU: Convergence failed at  82  side 1    Res =  0.2550E+01
 MRCHDU: Convergence failed at  83  side 1    Res =  0.2625E+01
 MRCHDU: Convergence failed at  84  side 1    Res =  0.2647E+01
 MRCHDU: Convergence failed at  85  side 1    Res =  0.2601E+01
 MRCHDU: Convergence failed at  86  side 1    Res =  0.2606E+01
 MRCHDU: Convergence failed at  87  side 1    Res =  0.2566E+01
 MRCHDU: Convergence failed at  88  side 1    Res =  0.2213E+01
 MRCHDU: Convergence failed at  89  side 1    Res =  0.2302E+01
 MRCHDU: Convergence failed at  90  side 1    Res =  0.2394E+01
 MRCHDU: Convergence failed at  91  side 1    Res =  0.2627E+01
 Side 1  free  transition at x/c =  0.2270   40
 Side 2 forced transition at x/c =  1.0003   71

  54   rms: 0.7735E+00   max: 0.1454E+02   T at   40  1   RLX: 0.103
       a = 10.000      CL =  1.3259
      Cm = -0.1219     CD =  0.06786   =>   CDf =  0.00624    CDp =  0.06162

 Side 1  free  transition at x/c =  0.2167   39
 Side 2 forced transition at x/c =  1.0003   71

  55   rms: 0.1479E+01   max: -.2839E+02   T at   39  1   RLX: 0.018
       a = 10.000      CL =  1.3191
      Cm = -0.1143     CD =  0.05970   =>   CDf =  0.00672    CDp =  0.05298

 Side 1  free  transition at x/c =  0.2177   39
 Side 2 forced transition at x/c =  1.0003   71

  56   rms: 0.7227E+00   max: 0.2613E+01   D at   91  1   RLX: 0.229
       a = 10.000      CL =  1.3716
      Cm = -0.1291     CD =  0.08653   =>   CDf =  0.00659    CDp =  0.07994

 Side 1  free  transition at x/c =  0.2188   39
 Side 2 forced transition at x/c =  1.0003   71

  57   rms: 0.4830E+00   max: 0.1656E+01   D at   81  2   RLX: 0.494
       a = 10.000      CL =  1.2321
      Cm = -0.1238     CD =  0.12304   =>   CDf =  0.00602    CDp =  0.11702

 Side 1  free  transition at x/c =  0.2221   39
 Side 2 forced transition at x/c =  1.0003   71
 idif Ue xi dudx           1  0.20091224      7.01737404E-03   28.630686    
 Uenew xinew           2  7.64044002E-02  2.66861916E-03

  58   rms: 0.1914E+00   max: 0.5093E+00   D at   73  2
       a = 10.000      CL =  0.9260
      Cm = -0.0507     CD =  0.14001   =>   CDf =  0.00680    CDp =  0.13321

 Side 1  free  transition at x/c =  0.2496   41
 Side 2 forced transition at x/c =  1.0003   72

  59   rms: 0.2600E+00   max: 0.1672E+01   D at   41  1   RLX: 0.897
       a = 10.000      CL =  1.0273
      Cm = -0.0470     CD =  0.14349   =>   CDf =  0.00686    CDp =  0.13663

 MRCHDU: Convergence failed at  39  side 1    Res =  0.1764E-03
 Side 1  free  transition at x/c =  0.2341   39
 Side 2 forced transition at x/c =  1.0003   72

  60   rms: 0.1840E+00   max: -.1200E+01   T at   39  1   RLX: 0.417
       a = 10.000      CL =  1.0547
      Cm = -0.0517     CD =  0.12018   =>   CDf =  0.00662    CDp =  0.11356

 Side 1  free  transition at x/c =  0.2297   39
 Side 2 forced transition at x/c =  1.0003   72

  61   rms: 0.3623E+00   max: -.1078E+01   T at   39  1   RLX: 0.464
       a = 10.000      CL =  0.9780
      Cm = -0.0663     CD =  0.13868   =>   CDf =  0.00660    CDp =  0.13209

 Side 1  free  transition at x/c =  0.2309   39
 Side 2 forced transition at x/c =  1.0003   72

  62   rms: 0.1109E+00   max: -.5629E+00   D at   39  1   RLX: 0.888
       a = 10.000      CL =  0.9322
      Cm = -0.0660     CD =  0.15183   =>   CDf =  0.00674    CDp =  0.14509

 Side 1  free  transition at x/c =  0.2957   45
 Side 2 forced transition at x/c =  1.0003   72

  63   rms: 0.6312E+00   max: 0.5407E+01   T at   45  1   RLX: 0.277
       a = 10.000      CL =  0.9690
      Cm = -0.0369     CD =  0.13214   =>   CDf =  0.00668    CDp =  0.12546

 Side 1  free  transition at x/c =  0.2677   42
 Side 2 forced transition at x/c =  1.0003   72

  64   rms: 0.1253E+01   max: -.1322E+02   T at   42  1   RLX: 0.038
       a = 10.000      CL =  1.0204
      Cm = -0.0388     CD =  0.09801   =>   CDf =  0.00665    CDp =  0.09136

 Side 1  free  transition at x/c =  0.2645   42
 Side 2 forced transition at x/c =  1.0003   72
 idif Ue xi dudx           1  0.16373980      4.71723080E-03   34.711002    
 Uenew xinew           2  3.18450779E-02  9.17434692E-04

  65   rms: 0.8012E+00   max: 0.2097E+01   D at   69  1   RLX: 0.345
       a = 10.000      CL =  0.8658
      Cm = -0.0590     CD =  0.14015   =>   CDf =  0.00717    CDp =  0.13299

 Side 1  free  transition at x/c =  0.2675   41
 Side 2 forced transition at x/c =  1.0003   73

  66   rms: 0.1844E+00   max: 0.9007E+00   D at   45  1   RLX: 0.994
       a = 10.000      CL =  0.8821
      Cm = -0.0790     CD =  0.18198   =>   CDf =  0.00697    CDp =  0.17501

 Side 1  free  transition at x/c =  0.4332   53
 Side 2 forced transition at x/c =  1.0003   73

  67   rms: 0.1064E+01   max: 0.9125E+01   T at   53  1   RLX: 0.164
       a = 10.000      CL =  0.9516
      Cm = -0.0554     CD =  0.13504   =>   CDf =  0.00622    CDp =  0.12882

 Side 1  free  transition at x/c =  0.3832   51
 Side 2 forced transition at x/c =  1.0003   72

  68   rms: 0.5640E+00   max: 0.6755E+01   T at   51  1   RLX: 0.222
       a = 10.000      CL =  1.0010
      Cm = -0.0756     CD =  0.12488   =>   CDf =  0.00646    CDp =  0.11842

 Side 1  free  transition at x/c =  0.3698   50
 Side 2 forced transition at x/c =  1.0003   72
 idif Ue xi dudx           1  0.20451525      5.77628613E-03   35.406010    
 Uenew xinew           2  6.99796230E-02  1.97649002E-03

  69   rms: 0.7533E+00   max: 0.4864E+01   T at   50  1   RLX: 0.308
       a = 10.000      CL =  0.8603
      Cm = -0.0768     CD =  0.14499   =>   CDf =  0.00695    CDp =  0.13804

 Side 1  free  transition at x/c =  0.3725   49
 Side 2 forced transition at x/c =  1.0003   73

  70   rms: 0.3301E+00   max: 0.3197E+01   T at   49  1   RLX: 0.469
       a = 10.000      CL =  0.8820
      Cm = -0.0583     CD =  0.15334   =>   CDf =  0.00676    CDp =  0.14658

 Side 1  free  transition at x/c =  0.3430   47
 Side 2 forced transition at x/c =  1.0003   73
 idif Ue xi dudx           1  0.17505173      4.00352478E-03   43.724403    
 Uenew xinew           2  3.04401536E-02  6.96182251E-04

  71   rms: 0.3135E+00   max: 0.1117E+01   T at   47  1
       a = 10.000      CL =  0.7643
      Cm = -0.0884     CD =  0.19317   =>   CDf =  0.00712    CDp =  0.18605

 Side 1  free  transition at x/c =  0.3301   45
 Side 2 forced transition at x/c =  1.0003   74

  72   rms: 0.9540E-01   max: -.3325E+00   D at   45  1
       a = 10.000      CL =  0.8389
      Cm = -0.0794     CD =  0.14937   =>   CDf =  0.00669    CDp =  0.14267

 Side 1  free  transition at x/c =  0.3311   46
 Side 2 forced transition at x/c =  1.0003   73

  73   rms: 0.1197E-01   max: 0.1770E+00   T at   46  1
       a = 10.000      CL =  0.8429
      Cm = -0.0801     CD =  0.15487   =>   CDf =  0.00686    CDp =  0.14801

 Side 1  free  transition at x/c =  0.3283   46
 Side 2 forced transition at x/c =  1.0003   73

  74   rms: 0.5173E-02   max: -.2969E-01   D at   46  1
       a = 10.000      CL =  0.8436
      Cm = -0.0798     CD =  0.15398   =>   CDf =  0.00683    CDp =  0.14715

 Side 1  free  transition at x/c =  0.3288   46
 Side 2 forced transition at x/c =  1.0003   73

  75   rms: 0.1758E-02   max: 0.1511E-01   T at   46  1
       a = 10.000      CL =  0.8451
      Cm = -0.0799     CD =  0.15455   =>   CDf =  0.00683    CDp =  0.14772

 Side 1  free  transition at x/c =  0.3285   46
 Side 2 forced transition at x/c =  1.0003   73

  76   rms: 0.4876E-04   max: -.4817E-03   D at   93  2
       a = 10.000      CL =  0.8450
      Cm = -0.0799     CD =  0.15463   =>   CDf =  0.00683    CDp =  0.14780
 plradd ia,ip,cpol           24          88  3.92395537E-03

 Point added to stored polar  1
 Save file unspecified or not available
 Dump file unspecified or not available

.OPERva   c>  
.OPERva   c>  
.OPERva   c>   Calculating wake trajectory ...
 Calculating source influence matrix ...

 Solving BL system ...

 Side 1  free  transition at x/c =  0.3285   46
 Side 2 forced transition at x/c =  1.0003   73

   1   rms: 0.1907E+00   max: 0.3509E+01   T at   46  1   RLX: 0.427
       a = 11.000      CL =  0.8712
      Cm = -0.0795     CD =  0.16159   =>   CDf =  0.00684    CDp =  0.15475

 Side 1  free  transition at x/c =  0.3109   45
 Side 2 forced transition at x/c =  1.0003   73

   2   rms: 0.9947E-01   max: 0.1704E+01   T at   45  1   RLX: 0.880
       a = 11.000      CL =  0.9037
      Cm = -0.0811     CD =  0.17161   =>   CDf =  0.00682    CDp =  0.16479

 Side 1  free  transition at x/c =  0.2959   44
 Side 2 forced transition at x/c =  1.0003   73

   3   rms: 0.5178E-01   max: 0.6403E+00   T at   44  1
       a = 11.000      CL =  0.8902
      Cm = -0.0810     CD =  0.17528   =>   CDf =  0.00678    CDp =  0.16850

 Side 1  free  transition at x/c =  0.2939   43
 Side 2 forced transition at x/c =  1.0003   73

   4   rms: 0.1741E-01   max: -.6877E-01   D at   43  1
       a = 11.000      CL =  0.8819
      Cm = -0.0818     CD =  0.17275   =>   CDf =  0.00681    CDp =  0.16594

 Side 1  free  transition at x/c =  0.2940   43
 Side 2 forced transition at x/c =  1.0003   73

   5   rms: 0.3346E-02   max: -.1939E-01   T at   43  1
       a = 11.000      CL =  0.8805
      Cm = -0.0815     CD =  0.17087   =>   CDf =  0.00683    CDp =  0.16404

 Side 1  free  transition at x/c =  0.2942   43
 Side 2 forced transition at x/c =  1.0003   73

   6   rms: 0.3533E-03   max: -.1895E-02   T at   43  1
       a = 11.000      CL =  0.8807
      Cm = -0.0815     CD =  0.17060   =>   CDf =  0.00684    CDp =  0.16376

 Side 1  free  transition at x/c =  0.2942   43
 Side 2 forced transition at x/c =  1.0003   73

   7   rms: 0.4545E-04   max: 0.3004E-03   T at   43  1
       a = 11.000      CL =  0.8807
      Cm = -0.0815     CD =  0.17063   =>   CDf =  0.00684    CDp =  0.16379
 plradd ia,ip,cpol           25          88  3.92395537E-03

 Point added to stored polar  1
 Save file unspecified or not available
 Dump file unspecified or not available

.OPERva   c>  
.OPERva   c>  
.OPERva   c>   Calculating wake trajectory ...
 Calculating source influence matrix ...

 Solving BL system ...

 Side 1  free  transition at x/c =  0.2942   43
 Side 2 forced transition at x/c =  1.0003   73

   1   rms: 0.3390E+00   max: 0.2357E+01   T at   43  1   RLX: 0.357
       a = 12.000      CL =  0.8154
      Cm = -0.0873     CD =  0.17555   =>   CDf =  0.00685    CDp =  0.16869

 Side 1  free  transition at x/c =  0.2783   42
 Side 2 forced transition at x/c =  1.0003   73

   2   rms: 0.1043E+00   max: 0.7008E+00   T at   42  1
       a = 12.000      CL =  0.8442
      Cm = -0.0854     CD =  0.15450   =>   CDf =  0.00699    CDp =  0.14751

 Side 1  free  transition at x/c =  0.2654   41
 Side 2 forced transition at x/c =  1.0003   73

   3   rms: 0.5590E-01   max: -.2966E+00   D at   41  1
       a = 12.000      CL =  0.8708
      Cm = -0.0847     CD =  0.17503   =>   CDf =  0.00667    CDp =  0.16836

 Side 1  free  transition at x/c =  0.2669   42
 Side 2 forced transition at x/c =  1.0003   72

   4   rms: 0.2110E-01   max: 0.1616E+00   D at    2  1
       a = 12.000      CL =  0.8858
      Cm = -0.0862     CD =  0.18223   =>   CDf =  0.00689    CDp =  0.17534

 Side 1  free  transition at x/c =  0.2647   42
 Side 2 forced transition at x/c =  1.0003   72

   5   rms: 0.3194E-02   max: -.2024E-01   D at   93  2
       a = 12.000      CL =  0.8860
      Cm = -0.0860     CD =  0.18236   =>   CDf =  0.00686    CDp =  0.17551

 Side 1  free  transition at x/c =  0.2650   42
 Side 2 forced transition at x/c =  1.0003   72

   6   rms: 0.1190E-02   max: 0.9692E-02   T at   42  1
       a = 12.000      CL =  0.8869
      Cm = -0.0861     CD =  0.18284   =>   CDf =  0.00686    CDp =  0.17598

 Side 1  free  transition at x/c =  0.2648   42
 Side 2 forced transition at x/c =  1.0003   72

   7   rms: 0.3614E-04   max: -.3736E-03   D at   93  2
       a = 12.000      CL =  0.8869
      Cm = -0.0861     CD =  0.18293   =>   CDf =  0.00686    CDp =  0.17608
 plradd ia,ip,cpol           26          89  3.92395537E-03

 Point added to stored polar  1
 Save file unspecified or not available
 Dump file unspecified or not available

.OPERva   c>  
.OPERva   c>  
.OPERva   c>   Calculating wake trajectory ...
 Calculating source influence matrix ...

 Solving BL system ...

 Side 1  free  transition at x/c =  0.2648   42
 Side 2 forced transition at x/c =  1.0003   72

   1   rms: 0.1457E+00   max: 0.2931E+01   T at   42  1   RLX: 0.386
       a = 13.000      CL =  0.8998
      Cm = -0.0874     CD =  0.19005   =>   CDf =  0.00686    CDp =  0.18319

 Side 1  free  transition at x/c =  0.2533   41
 Side 2 forced transition at x/c =  1.0003   72

   2   rms: 0.5657E-01   max: 0.1063E+01   T at   41  1
       a = 13.000      CL =  0.9082
      Cm = -0.0920     CD =  0.19977   =>   CDf =  0.00685    CDp =  0.19292

 Side 1  free  transition at x/c =  0.2372   40
 Side 2 forced transition at x/c =  1.0003   72

   3   rms: 0.4086E-01   max: -.4267E+00   D at   40  1
       a = 13.000      CL =  0.8968
      Cm = -0.0899     CD =  0.18771   =>   CDf =  0.00686    CDp =  0.18085

 Side 1  free  transition at x/c =  0.2407   40
 Side 2 forced transition at x/c =  1.0003   72

   4   rms: 0.1846E-01   max: -.6818E-01   D at   92  2
       a = 13.000      CL =  0.9117
      Cm = -0.0908     CD =  0.19572   =>   CDf =  0.00689    CDp =  0.18882

 Side 1  free  transition at x/c =  0.2398   40
 Side 2 forced transition at x/c =  1.0003   72

   5   rms: 0.8389E-03   max: -.1005E-01   D at   93  2
       a = 13.000      CL =  0.9115
      Cm = -0.0908     CD =  0.19677   =>   CDf =  0.00685    CDp =  0.18992

 Side 1  free  transition at x/c =  0.2398   40
 Side 2 forced transition at x/c =  1.0003   72

   6   rms: 0.8323E-04   max: 0.3419E-03   T at   40  1
       a = 13.000      CL =  0.9116
      Cm = -0.0908     CD =  0.19671   =>   CDf =  0.00685    CDp =  0.18987
 plradd ia,ip,cpol           27          89  3.92395537E-03

 Point added to stored polar  1
 Save file unspecified or not available
 Dump file unspecified or not available

.OPERva   c>  
.OPERva   c>  
.OPERva   c>  
        airfoil                    Re           Mach       Ncrit  XtripT  XtripB     file
       ------------------------  ------------  ----------  -----  ------  ------    -------------------
 >  1  naca pippo                5.000e4       0.000        9.00   1.000   1.000    

Enter polar output filename   s>  
.OPERva   c>  
 ==============================================================
 Polar  1
  
       XFOIL         Version 6.99
  
 Calculated polar for: naca pippo                                      
  
 1 1 Reynolds number fixed          Mach number fixed         
  
 xtrf =   1.000 (top)        1.000 (bottom)  
 Mach =   0.000     Re =     0.050 e 6     Ncrit =   9.000
  
   alpha    CL        CD       CDp       CM     Top_Xtr  Bot_Xtr
  ------ -------- --------- --------- -------- -------- --------
 -14.000  -0.3613   0.15117   0.14355  -0.0108   0.9997   0.1556
 -13.000  -0.3386   0.13789   0.13032  -0.0121   0.9997   0.1633
 -12.000  -0.3283   0.12635   0.11889  -0.0139   0.9997   0.1725
 -10.000  -0.3918   0.10777   0.10020  -0.0104   0.9997   0.1874
  -9.000  -0.4121   0.10002   0.09284  -0.0167   0.9997   0.1964
  -8.000  -0.3863   0.08683   0.07977  -0.0197   0.9997   0.2111
  -7.000  -0.3529   0.07194   0.06505  -0.0167   0.9997   0.2350
  -6.000  -0.3182   0.06047   0.05359  -0.0155   0.9997   0.3196
  -5.000  -0.3035   0.04870   0.04211  -0.0008   0.9997   0.4815
  -4.000  -0.2710   0.03608   0.02967   0.0104   0.9997   0.6406
  -3.000  -0.0273   0.03354   0.02446  -0.0335   0.9997   0.3876
  -2.000   0.0771   0.03122   0.02149  -0.0371   0.9997   0.4027
  -1.000   0.1646   0.03139   0.02144  -0.0385   0.9997   0.4233
   0.000   0.4022   0.03132   0.02127  -0.0643   0.9247   0.4426
   1.000   0.6428   0.02710   0.01763  -0.0805   0.8137   0.4581
   2.000   0.7815   0.02461   0.01483  -0.0745   0.6112   0.4714
   3.000   0.8838   0.02666   0.01660  -0.0702   0.4734   0.5387
   4.000   0.9781   0.02963   0.02000  -0.0650   0.3949   1.0003
   5.000   1.0702   0.03513   0.02550  -0.0614   0.3309   1.0003
   6.000   1.1494   0.04234   0.03305  -0.0568   0.2768   1.0003
   7.000   1.2076   0.05085   0.04217  -0.0504   0.2292   1.0003
   8.000   1.2404   0.06272   0.05471  -0.0432   0.1972   1.0003
   9.000   1.0953   0.08932   0.08251  -0.0346   0.1973   1.0003
  10.000   0.8450   0.15463   0.14780  -0.0799   0.3285   1.0003
  11.000   0.8807   0.17063   0.16379  -0.0815   0.2942   1.0003
  12.000   0.8869   0.18293   0.17608  -0.0861   0.2648   1.0003
  13.000   0.9116   0.19671   0.18987  -0.0908   0.2398   1.0003

.OPERva   c>  
 XFOIL   c>  