
 ===================================================
  XFOIL Version 6.99
  Copyright (C) 2000   Mark Drela, Harold Youngren

  This software comes with ABSOLUTELY NO WARRANTY,
    subject to the GNU General Public License.

  Caveat computor
 ===================================================

 File  xfoil.def  not found

   QUIT    Exit program

  .OPER    Direct operating point(s)
  .MDES    Complex mapping design routine
  .QDES    Surface speed design routine
  .GDES    Geometry design routine

   SAVE f  Write airfoil to labeled coordinate file
   PSAV f  Write airfoil to plain coordinate file
   ISAV f  Write airfoil to ISES coordinate file
   MSAV f  Write airfoil to MSES coordinate file
   REVE    Reverse written-airfoil node ordering

   LOAD f  Read buffer airfoil from coordinate file
   NACA i  Set NACA 4,5-digit airfoil and buffer airfoil
   INTE    Set buffer airfoil by interpolating two airfoils
   NORM    Buffer airfoil normalization toggle
   XYCM rr Change CM reference location, currently  0.25000 0.00000

   BEND    Display structural properties of current airfoil

   PCOP    Set current-airfoil panel nodes directly from buffer airfoil points
   PANE    Set current-airfoil panel nodes ( 160 ) based on curvature
  .PPAR    Show/change paneling

  .PLOP    Plotting options

   WDEF f  Write  current-settings file
   RDEF f  Reread current-settings file
   NAME s  Specify new airfoil name
   NINC    Increment name version number

   Z       Zoom    | (available in all menus)
   U       Unzoom  | 

 XFOIL   c>  
 Labeled airfoil file.  Name:  naca pippo                                      

 Number of input coordinate points: 250
 Clockwise ordering
 Max thickness =     0.094248  at x =   0.140
 Max camber    =     0.037242  at x =   0.410

  LE  x,y  =  -0.00004   0.03594  |   Chord =   1.00010
  TE  x,y  =   0.99953   0.00345  |

 Current airfoil nodes set from buffer airfoil nodes ( 250 )

 XFOIL   c>  
 Blunt trailing edge.  Gap =  0.00757

 Paneling parameters used...
   Number of panel nodes       160
   Panel bunching parameter    1.000
   TE/LE panel density ratio   0.150
   Refined-area/LE panel density ratio    0.200
   Top    side refined area x/c limits  1.000 1.000
   Bottom side refined area x/c limits  1.000 1.000

 XFOIL   c>   N    command not recognized.  Type a "?" for list

 XFOIL   c>   330  command not recognized.  Type a "?" for list

 XFOIL   c>  
 XFOIL   c>  
.OPERi   c>   Current iteration limit:          10

Enter new iteration limit   i>  
.OPERi   c>  
 XFOIL   c>  
 XFOIL   c>  
 XFOIL   c>  
.OPERi   c>  
.OPERi   c>  
.OPERi   c>  
 M  =    0.0000
 Re =     50000

.OPERv   c>  
 Polar  1 newly created for accumulation
 Airfoil archived with polar: naca pippo                                      

Enter  polar save filename  OR  <return> for no file   s>  
 Polar save file will NOT be written

Enter  polar dump filename  OR  <return> for no file   s>  
 Polar dump file will NOT be written

 Polar accumulation enabled

.OPERva   c>   Calculating unit vorticity distributions ...
 Calculating wake trajectory ...
 Calculating source influence matrix ...

 Solving BL system ...

 Initializing BL ...
    side            1  ...
 MRCHUE: Inverse mode at  23     Hk =   3.800
 MRCHUE: Inverse mode at  25     Hk =   3.800
 MRCHUE: Inverse mode at  30     Hk =   3.800
 MRCHUE: Inverse mode at  31     Hk =   4.205
 MRCHUE: Inverse mode at  32     Hk =   4.577
 MRCHUE: Inverse mode at  33     Hk =   4.907
 MRCHUE: Inverse mode at  34     Hk =   5.199
 MRCHUE: Inverse mode at  35     Hk =   5.461
 MRCHUE: Convergence failed at  35  side 1    Res =  0.4652E+00
 MRCHUE: Inverse mode at  36     Hk =   5.452
 MRCHUE: Inverse mode at  37     Hk =   5.701
 MRCHUE: Inverse mode at  38     Hk =   5.947
 MRCHUE: Inverse mode at  39     Hk =   6.184
 MRCHUE: Inverse mode at  40     Hk =   6.414
 MRCHUE: Inverse mode at  41     Hk =   6.644
 MRCHUE: Inverse mode at  42     Hk =   6.887
 MRCHUE: Inverse mode at  43     Hk =   7.139
 MRCHUE: Inverse mode at  44     Hk =   7.394
 MRCHUE: Inverse mode at  45     Hk =   7.651
 MRCHUE: Inverse mode at  46     Hk =   7.914
 MRCHUE: Inverse mode at  47     Hk =   8.177
 MRCHUE: Inverse mode at  48     Hk =   8.436
 MRCHUE: Inverse mode at  49     Hk =   8.700
 MRCHUE: Inverse mode at  50     Hk =   8.961
 MRCHUE: Inverse mode at  51     Hk =   7.907
 MRCHUE: Inverse mode at  52     Hk =   6.947
 MRCHUE: Inverse mode at  53     Hk =   6.192
 MRCHUE: Inverse mode at  54     Hk =   5.599
 MRCHUE: Inverse mode at  55     Hk =   5.097
 MRCHUE: Inverse mode at  56     Hk =   4.643
 MRCHUE: Inverse mode at  57     Hk =   4.227
 MRCHUE: Inverse mode at  58     Hk =   3.846
 MRCHUE: Inverse mode at  59     Hk =   3.486
 MRCHUE: Inverse mode at  60     Hk =   3.151
 MRCHUE: Convergence failed at  87  side 1    Res =  0.5641E+01
    side            2  ...
 MRCHUE: Convergence failed at  20  side 2    Res =  0.3761E+01
 MRCHUE: Convergence failed at  21  side 2    Res =  0.2464E+01
 MRCHUE: Inverse mode at  22     Hk =   3.800
 MRCHUE: Inverse mode at  23     Hk =   4.290
 MRCHUE: Inverse mode at  24     Hk =   4.727
 MRCHUE: Inverse mode at  25     Hk =   5.117
 MRCHUE: Inverse mode at  26     Hk =   5.467
 MRCHUE: Inverse mode at  27     Hk =   5.797
 MRCHUE: Inverse mode at  28     Hk =   6.111
 MRCHUE: Inverse mode at  29     Hk =   6.410
 MRCHUE: Inverse mode at  30     Hk =   6.681
 MRCHUE: Inverse mode at  31     Hk =   6.936
 MRCHUE: Inverse mode at  32     Hk =   7.180
 MRCHUE: Inverse mode at  33     Hk =   7.414
 MRCHUE: Inverse mode at  34     Hk =   7.646
 MRCHUE: Inverse mode at  35     Hk =   7.869
 MRCHUE: Inverse mode at  36     Hk =   8.087
 MRCHUE: Inverse mode at  37     Hk =   8.302
 MRCHUE: Inverse mode at  38     Hk =   8.501
 MRCHUE: Inverse mode at  39     Hk =   8.695
 MRCHUE: Inverse mode at  40     Hk =   8.886
 MRCHUE: Inverse mode at  41     Hk =   9.076
 MRCHUE: Inverse mode at  42     Hk =   9.271
 MRCHUE: Inverse mode at  43     Hk =   9.467
 MRCHUE: Inverse mode at  44     Hk =   9.665
 MRCHUE: Inverse mode at  45     Hk =   9.865
 MRCHUE: Inverse mode at  46     Hk =  10.064
 MRCHUE: Inverse mode at  47     Hk =  10.255
 MRCHUE: Inverse mode at  48     Hk =  10.446
 MRCHUE: Inverse mode at  49     Hk =   9.507
 MRCHUE: Inverse mode at  50     Hk =   8.771
 MRCHUE: Inverse mode at  51     Hk =   8.182
 MRCHUE: Inverse mode at  52     Hk =   7.686
 MRCHUE: Inverse mode at  53     Hk =   7.266
 MRCHUE: Inverse mode at  54     Hk =   6.913
 MRCHUE: Inverse mode at  55     Hk =   6.625
 MRCHUE: Inverse mode at  56     Hk =   6.386
 MRCHUE: Inverse mode at  57     Hk =   6.128
 MRCHUE: Inverse mode at  58     Hk =   5.848
 MRCHUE: Inverse mode at  59     Hk =   5.563
 MRCHUE: Inverse mode at  60     Hk =   5.285
 MRCHUE: Inverse mode at  61     Hk =   5.020
 MRCHUE: Inverse mode at  62     Hk =   4.771
 MRCHUE: Inverse mode at  63     Hk =   4.537
 MRCHUE: Inverse mode at  64     Hk =   4.316
 MRCHUE: Inverse mode at  65     Hk =   4.108
 MRCHUE: Inverse mode at  66     Hk =   3.911
 MRCHUE: Inverse mode at  67     Hk =   3.723
 MRCHUE: Inverse mode at  68     Hk =   3.544
 MRCHUE: Inverse mode at  69     Hk =   3.372
 MRCHUE: Inverse mode at  70     Hk =   3.207
 MRCHUE: Inverse mode at  71     Hk =   3.050
 MRCHUE: Inverse mode at  72     Hk =   2.902
 MRCHUE: Convergence failed at  73  side 2    Res =  0.1656E+00

 MRCHDU: Convergence failed at  87  side 1    Res =  0.8391E+01
 MRCHDU: Convergence failed at  20  side 2    Res =  0.1028E+01
 MRCHDU: Convergence failed at  21  side 2    Res =  0.2120E+01
 MRCHDU: Convergence failed at  22  side 2    Res =  0.4696E+01
 MRCHDU: Convergence failed at  23  side 2    Res =  0.1723E+01
 MRCHDU: Convergence failed at  24  side 2    Res =  0.1856E+01
 MRCHDU: Convergence failed at  25  side 2    Res =  0.1962E+01
 MRCHDU: Convergence failed at  26  side 2    Res =  0.2168E+01
 MRCHDU: Convergence failed at  27  side 2    Res =  0.2389E+01
 MRCHDU: Convergence failed at  28  side 2    Res =  0.3717E+01
 MRCHDU: Convergence failed at  29  side 2    Res =  0.4905E+01
 MRCHDU: Convergence failed at  30  side 2    Res =  0.1635E+04
 MRCHDU: Convergence failed at  31  side 2    Res =  0.9344E+01
 MRCHDU: Convergence failed at  32  side 2    Res =  0.6683E+01
 MRCHDU: Convergence failed at  33  side 2    Res =  0.5266E+01
 MRCHDU: Convergence failed at  34  side 2    Res =  0.4771E+01
 MRCHDU: Convergence failed at  35  side 2    Res =  0.5141E+01
 MRCHDU: Convergence failed at  36  side 2    Res =  0.5303E+01
 MRCHDU: Convergence failed at  37  side 2    Res =  0.5561E+01
 MRCHDU: Convergence failed at  38  side 2    Res =  0.6259E+01
 MRCHDU: Convergence failed at  39  side 2    Res =  0.2715E+01
 MRCHDU: Convergence failed at  40  side 2    Res =  0.2765E+01
 MRCHDU: Convergence failed at  41  side 2    Res =  0.2821E+01
 MRCHDU: Convergence failed at  42  side 2    Res =  0.2870E+01
 MRCHDU: Convergence failed at  43  side 2    Res =  0.2964E+01
 MRCHDU: Convergence failed at  44  side 2    Res =  0.3082E+01
 MRCHDU: Convergence failed at  45  side 2    Res =  0.3244E+01
 MRCHDU: Convergence failed at  46  side 2    Res =  0.3353E+01
 MRCHDU: Convergence failed at  47  side 2    Res =  0.3479E+01
 MRCHDU: Convergence failed at  48  side 2    Res =  0.3598E+01
 MRCHDU: Convergence failed at  49  side 2    Res =  0.3697E+01
 MRCHDU: Convergence failed at  50  side 2    Res =  0.4609E+01
 MRCHDU: Convergence failed at  51  side 2    Res =  0.5435E+01
 MRCHDU: Convergence failed at  52  side 2    Res =  0.6270E+01
 MRCHDU: Convergence failed at  53  side 2    Res =  0.7107E+01
 MRCHDU: Convergence failed at  54  side 2    Res =  0.7922E+01
 MRCHDU: Convergence failed at  55  side 2    Res =  0.8737E+01
 MRCHDU: Convergence failed at  56  side 2    Res =  0.9435E+01
 MRCHDU: Convergence failed at  57  side 2    Res =  0.1012E+02
 MRCHDU: Convergence failed at  58  side 2    Res =  0.1097E+02
 MRCHDU: Convergence failed at  59  side 2    Res =  0.1139E+02
 MRCHDU: Convergence failed at  60  side 2    Res =  0.1120E+02
 MRCHDU: Convergence failed at  61  side 2    Res =  0.1259E+02
 MRCHDU: Convergence failed at  62  side 2    Res =  0.1617E+03
 MRCHDU: Convergence failed at  63  side 2    Res =  0.6314E+01
 MRCHDU: Convergence failed at  64  side 2    Res =  0.2211E+03
 MRCHDU: Convergence failed at  65  side 2    Res =  0.7843E+02
 MRCHDU: Convergence failed at  66  side 2    Res =  0.4909E+02
 MRCHDU: Convergence failed at  67  side 2    Res =  0.3662E+02
 MRCHDU: Convergence failed at  68  side 2    Res =  0.2960E+02
 MRCHDU: Convergence failed at  69  side 2    Res =  0.2514E+02
 MRCHDU: Convergence failed at  70  side 2    Res =  0.1777E+02
 MRCHDU: Convergence failed at  71  side 2    Res =  0.1948E+02
 MRCHDU: Convergence failed at  72  side 2    Res =  0.2127E+02
 MRCHDU: Convergence failed at  73  side 2    Res =  0.5194E+01
 MRCHDU: Convergence failed at  74  side 2    Res =  0.2769E+01
 MRCHDU: Convergence failed at  75  side 2    Res =  0.2589E+02
 Side 1  free  transition at x/c =  0.4338   51
 Side 2 forced transition at x/c =  1.0003   75

   1   rms: 0.5857E+00   max: -.3446E+01   C at   75  2   RLX: 0.145
       a =  2.000      CL =  0.5633
      Cm =  0.0149     CD =  0.00777   =>   CDf =  0.03085    CDp = -0.02308

 Side 1  free  transition at x/c =  0.4446   51
 Side 2 forced transition at x/c =  1.0003   75

   2   rms: 0.5872E+00   max: -.4224E+01   T at   51  1   RLX: 0.118
       a =  2.000      CL =  0.5634
      Cm =  0.0144     CD =  0.01029   =>   CDf =  0.01365    CDp = -0.00336

 Side 1  free  transition at x/c =  0.4773   53
 Side 2 forced transition at x/c =  1.0003   75

   3   rms: 0.4772E+00   max: -.3234E+01   T at   53  1   RLX: 0.155
       a =  2.000      CL =  0.6117
      Cm = -0.0013     CD =  0.01002   =>   CDf =  0.01376    CDp = -0.00374

 MRCHDU: Convergence failed at  56  side 1    Res =  0.7870E+01
 MRCHDU: Convergence failed at  57  side 1    Res =  0.4406E+01
 MRCHDU: Convergence failed at  58  side 1    Res =  0.8366E+01
 MRCHDU: Convergence failed at  59  side 1    Res =  0.1516E+02
 MRCHDU: Convergence failed at  60  side 1    Res =  0.2934E+02
 MRCHDU: Convergence failed at  61  side 1    Res =  0.7171E+01
 MRCHDU: Convergence failed at  62  side 1    Res =  0.9577E+01
 MRCHDU: Convergence failed at  63  side 1    Res =  0.1278E+02
 MRCHDU: Convergence failed at  64  side 1    Res =  0.1650E+02
 MRCHDU: Convergence failed at  65  side 1    Res =  0.2156E+02
 MRCHDU: Convergence failed at  66  side 1    Res =  0.2376E+02
 MRCHDU: Convergence failed at  67  side 1    Res =  0.3069E+02
 MRCHDU: Convergence failed at  68  side 1    Res =  0.4340E+02
 MRCHDU: Convergence failed at  69  side 1    Res =  0.4450E+02
 MRCHDU: Convergence failed at  70  side 1    Res =  0.4146E+02
 MRCHDU: Convergence failed at  71  side 1    Res =  0.4462E+02
 MRCHDU: Convergence failed at  72  side 1    Res =  0.4517E+02
 MRCHDU: Convergence failed at  73  side 1    Res =  0.7010E+02
 MRCHDU: Convergence failed at  74  side 1    Res =  0.3862E+02
 MRCHDU: Convergence failed at  75  side 1    Res =  0.2976E+02
 MRCHDU: Convergence failed at  76  side 1    Res =  0.2789E+02
 MRCHDU: Convergence failed at  77  side 1    Res =  0.2983E+02
 MRCHDU: Convergence failed at  78  side 1    Res =  0.2428E+02
 MRCHDU: Convergence failed at  79  side 1    Res =  0.3090E+02
 MRCHDU: Convergence failed at  80  side 1    Res =  0.2292E+02
 MRCHDU: Convergence failed at  81  side 1    Res =  0.1843E+02
 MRCHDU: Convergence failed at  82  side 1    Res =  0.1837E+02
 MRCHDU: Convergence failed at  83  side 1    Res =  0.1786E+02
 MRCHDU: Convergence failed at  84  side 1    Res =  0.1730E+02
 MRCHDU: Convergence failed at  85  side 1    Res =  0.1997E+02
 MRCHDU: Convergence failed at  86  side 1    Res =  0.4584E+02
 MRCHDU: Convergence failed at  87  side 1    Res =  0.7105E+02
 Side 1  free  transition at x/c =  0.5149   56
 Side 2 forced transition at x/c =  1.0003   75
 idif Ue xi dudx           1  0.20254381      3.08620930E-03   65.628670    
 Uenew xinew           2  2.45111734E-02  3.73482704E-04

   4   rms: 0.6647E+00   max: 0.3135E+01   D at   79  2   RLX: 0.327
       a =  2.000      CL =  0.8156
      Cm = -0.1106     CD =  0.00898   =>   CDf =  0.01091    CDp = -0.00193

 Side 1  free  transition at x/c =  0.5416   57
 Side 2 forced transition at x/c =  1.0003   76

   5   rms: 0.3338E+00   max: 0.8088E+00   C at   76  2   RLX: 0.651
       a =  2.000      CL =  0.8185
      Cm = -0.0871     CD =  0.01857   =>   CDf =  0.01334    CDp =  0.00523

 Side 1  free  transition at x/c =  0.5787   59
 Side 2 forced transition at x/c =  1.0003   76

   6   rms: 0.2155E+00   max: 0.9728E+00   D at   26  2
       a =  2.000      CL =  0.7968
      Cm = -0.0752     CD =  0.02154   =>   CDf =  0.01070    CDp =  0.01084

 MRCHDU: Convergence failed at  36  side 2    Res =  0.9426E+00
 MRCHDU: Convergence failed at  37  side 2    Res =  0.1517E+01
 MRCHDU: Convergence failed at  38  side 2    Res =  0.2282E+01
 MRCHDU: Convergence failed at  39  side 2    Res =  0.5801E+01
 MRCHDU: Convergence failed at  40  side 2    Res =  0.1706E+02
 MRCHDU: Convergence failed at  41  side 2    Res =  0.4584E+01
 MRCHDU: Convergence failed at  42  side 2    Res =  0.3262E+01
 MRCHDU: Convergence failed at  43  side 2    Res =  0.2987E+01
 MRCHDU: Convergence failed at  44  side 2    Res =  0.2438E+01
 MRCHDU: Convergence failed at  45  side 2    Res =  0.1949E+01
 MRCHDU: Convergence failed at  46  side 2    Res =  0.1761E+01
 MRCHDU: Convergence failed at  47  side 2    Res =  0.1170E+01
 MRCHDU: Convergence failed at  48  side 2    Res =  0.1791E+01
 Side 1  free  transition at x/c =  0.6118   61
 Side 2 forced transition at x/c =  1.0003   76

   7   rms: 0.1781E+00   max: 0.1221E+01   D at   34  2
       a =  2.000      CL =  0.7763
      Cm = -0.0731     CD =  0.02254   =>   CDf =  0.00829    CDp =  0.01426

 Side 1  free  transition at x/c =  0.6155   61
 Side 2  free  transition at x/c =  0.4915   44

   8   rms: 0.6456E-01   max: 0.7969E+00   C at   44  2
       a =  2.000      CL =  0.7808
      Cm = -0.0744     CD =  0.02463   =>   CDf =  0.00958    CDp =  0.01505

 Side 1  free  transition at x/c =  0.6107   61
 Side 2  free  transition at x/c =  0.4711   43

   9   rms: 0.8742E-02   max: -.7876E-01   D at   44  2
       a =  2.000      CL =  0.7815
      Cm = -0.0744     CD =  0.02460   =>   CDf =  0.00977    CDp =  0.01483

 Side 1  free  transition at x/c =  0.6112   61
 Side 2  free  transition at x/c =  0.4714   43

  10   rms: 0.2659E-03   max: -.3531E-02   D at   48  2
       a =  2.000      CL =  0.7815
      Cm = -0.0745     CD =  0.02461   =>   CDf =  0.00978    CDp =  0.01483

 Side 1  free  transition at x/c =  0.6112   61
 Side 2  free  transition at x/c =  0.4714   43

  11   rms: 0.1978E-05   max: -.1109E-04   D at   48  2
       a =  2.000      CL =  0.7815
      Cm = -0.0745     CD =  0.02461   =>   CDf =  0.00978    CDp =  0.01483
 plradd ia,ip,cpol            1          85  5.07543758E-02

 Point added to stored polar  1
 Save file unspecified or not available
 Dump file unspecified or not available

.OPERva   c>  
.OPERva   c>  
.OPERva   c>   Calculating wake trajectory ...
 Calculating source influence matrix ...

 Solving BL system ...

 Side 1  free  transition at x/c =  0.6112   61
 Side 2  free  transition at x/c =  0.4714   43

   1   rms: 0.2291E+00   max: -.1849E+01   T at   61  1   RLX: 0.270
       a =  1.000      CL =  0.7603
      Cm = -0.0771     CD =  0.02400   =>   CDf =  0.00975    CDp =  0.01425

 Side 1  free  transition at x/c =  0.6824   65
 Side 2  free  transition at x/c =  0.4669   43

   2   rms: 0.3544E+00   max: -.2513E+01   T at   65  1   RLX: 0.199
       a =  1.000      CL =  0.7782
      Cm = -0.0826     CD =  0.02188   =>   CDf =  0.00966    CDp =  0.01222

 MRCHDU: Convergence failed at  70  side 1    Res =  0.4159E+01
 MRCHDU: Convergence failed at  71  side 1    Res =  0.3509E+01
 MRCHDU: Convergence failed at  72  side 1    Res =  0.3436E+01
 MRCHDU: Convergence failed at  73  side 1    Res =  0.5720E+01
 MRCHDU: Convergence failed at  74  side 1    Res =  0.1076E+02
 MRCHDU: Convergence failed at  75  side 1    Res =  0.2722E+02
 MRCHDU: Convergence failed at  76  side 1    Res =  0.3137E+03
 MRCHDU: Convergence failed at  77  side 1    Res =  0.4875E+02
 MRCHDU: Convergence failed at  78  side 1    Res =  0.2393E+02
 MRCHDU: Convergence failed at  79  side 1    Res =  0.2105E+02
 MRCHDU: Convergence failed at  80  side 1    Res =  0.2729E+02
 MRCHDU: Convergence failed at  81  side 1    Res =  0.3331E+02
 MRCHDU: Convergence failed at  82  side 1    Res =  0.5802E+02
 MRCHDU: Convergence failed at  83  side 1    Res =  0.5021E+03
 MRCHDU: Convergence failed at  84  side 1    Res =  0.5308E+02
 MRCHDU: Convergence failed at  85  side 1    Res =  0.3114E+02
 MRCHDU: Convergence failed at  86  side 1    Res =  0.1061E+02
 Side 1  free  transition at x/c =  0.7624   70
 Side 2  free  transition at x/c =  0.4670   43

   3   rms: 0.5630E+00   max: 0.4922E+01   C at   70  1   RLX: 0.111
       a =  1.000      CL =  0.8336
      Cm = -0.1301     CD =  0.01356   =>   CDf =  0.00877    CDp =  0.00479

 Side 1  free  transition at x/c =  0.8437   75
 Side 2  free  transition at x/c =  0.4648   43

   4   rms: 0.1775E+00   max: 0.1179E+01   D at   86  1
       a =  1.000      CL =  0.7844
      Cm = -0.1070     CD =  0.01960   =>   CDf =  0.00959    CDp =  0.01001

 MRCHDU: Convergence failed at  86  side 1    Res =  0.4705E+01
 Side 1  free  transition at x/c =  0.7938   72
 Side 2  free  transition at x/c =  0.4631   43
 idif Ue xi dudx           1  0.25085667      3.76629829E-03   66.605629    
 Uenew xinew           2  7.85981566E-02  1.18005276E-03

   5   rms: 0.1020E+00   max: 0.2943E+00   D at   86  2
       a =  1.000      CL =  0.6825
      Cm = -0.0861     CD =  0.02511   =>   CDf =  0.00951    CDp =  0.01560

 MRCHDU: Convergence failed at  85  side 1    Res =  0.5881E+01
 Side 1  free  transition at x/c =  0.8379   74
 Side 2  free  transition at x/c =  0.4594   43

   6   rms: 0.7257E-01   max: 0.4039E+00   C at   74  1
       a =  1.000      CL =  0.6764
      Cm = -0.0851     CD =  0.02517   =>   CDf =  0.00948    CDp =  0.01569

 Side 1  free  transition at x/c =  0.8261   73
 Side 2  free  transition at x/c =  0.4591   43

   7   rms: 0.7231E-01   max: 0.3228E+00   D at   77  1
       a =  1.000      CL =  0.6223
      Cm = -0.0777     CD =  0.02778   =>   CDf =  0.00943    CDp =  0.01836

 Side 1  free  transition at x/c =  0.8088   72
 Side 2  free  transition at x/c =  0.4575   43

   8   rms: 0.4856E-01   max: -.1933E+00   D at   79  1
       a =  1.000      CL =  0.6556
      Cm = -0.0822     CD =  0.02642   =>   CDf =  0.00950    CDp =  0.01692

 Side 1  free  transition at x/c =  0.8193   73
 Side 2  free  transition at x/c =  0.4585   43

   9   rms: 0.2795E-01   max: 0.1411E+00   D at   76  1
       a =  1.000      CL =  0.6432
      Cm = -0.0806     CD =  0.02708   =>   CDf =  0.00946    CDp =  0.01762

 Side 1  free  transition at x/c =  0.8137   73
 Side 2  free  transition at x/c =  0.4581   43

  10   rms: 0.5480E-03   max: -.5055E-02   D at   73  1
       a =  1.000      CL =  0.6428
      Cm = -0.0805     CD =  0.02710   =>   CDf =  0.00947    CDp =  0.01763

 Side 1  free  transition at x/c =  0.8137   73
 Side 2  free  transition at x/c =  0.4581   43

  11   rms: 0.2799E-05   max: 0.2837E-04   D at   46  2
       a =  1.000      CL =  0.6428
      Cm = -0.0805     CD =  0.02710   =>   CDf =  0.00947    CDp =  0.01763
 plradd ia,ip,cpol            2          84  5.07543758E-02

 Point added to stored polar  1
 Save file unspecified or not available
 Dump file unspecified or not available

.OPERva   c>  
.OPERva   c>  
.OPERva   c>   Calculating wake trajectory ...
 Calculating source influence matrix ...

 Solving BL system ...

 Side 1  free  transition at x/c =  0.8137   73
 Side 2  free  transition at x/c =  0.4581   43
 idif Ue xi dudx           1  0.28438199      4.23109531E-03   67.212379    
 Uenew xinew           2  0.12028125      1.78956985E-03

   1   rms: 0.4213E+00   max: 0.9437E+00   D at   84  2   RLX: 0.424
       a =  0.000      CL =  0.5040
      Cm = -0.0721     CD =  0.03169   =>   CDf =  0.00980    CDp =  0.02189

 Side 1  free  transition at x/c =  0.8546   74
 Side 2  free  transition at x/c =  0.4528   44

   2   rms: 0.2893E+00   max: -.2123E+01   T at   74  1   RLX: 0.236
       a =  0.000      CL =  0.5564
      Cm = -0.0796     CD =  0.03172   =>   CDf =  0.00982    CDp =  0.02190

 Side 1  free  transition at x/c =  0.8980   77
 Side 2  free  transition at x/c =  0.4547   44
 idif Ue xi dudx           2  0.30984259      4.35197353E-03   71.195877    
 Uenew xinew           3  0.15040185      2.11250782E-03

   3   rms: 0.2436E+00   max: 0.1087E+01   D at   80  1
       a =  0.000      CL =  0.3460
      Cm = -0.0561     CD =  0.03359   =>   CDf =  0.01046    CDp =  0.02313

 Side 1  free  transition at x/c =  0.9142   76
 Side 2  free  transition at x/c =  0.4407   45

   4   rms: 0.9219E-01   max: 0.9701E+00   T at    2  2   RLX: 0.941
       a =  0.000      CL =  0.3987
      Cm = -0.0636     CD =  0.03108   =>   CDf =  0.00984    CDp =  0.02124

 Side 1  free  transition at x/c =  0.9250   77
 Side 2  free  transition at x/c =  0.4426   44

   5   rms: 0.1271E-01   max: 0.1594E+00   D at    3  2
       a =  0.000      CL =  0.4022
      Cm = -0.0643     CD =  0.03131   =>   CDf =  0.01006    CDp =  0.02125

 Side 1  free  transition at x/c =  0.9247   77
 Side 2  free  transition at x/c =  0.4426   44

   6   rms: 0.2199E-02   max: -.2574E-01   D at    4  1
       a =  0.000      CL =  0.4022
      Cm = -0.0643     CD =  0.03132   =>   CDf =  0.01005    CDp =  0.02127

 Side 1  free  transition at x/c =  0.9247   77
 Side 2  free  transition at x/c =  0.4426   44

   7   rms: 0.1705E-04   max: 0.2104E-03   D at    6  1
       a =  0.000      CL =  0.4022
      Cm = -0.0643     CD =  0.03132   =>   CDf =  0.01005    CDp =  0.02127
 plradd ia,ip,cpol            3          82  7.18564466E-02

 Point added to stored polar  1
 Save file unspecified or not available
 Dump file unspecified or not available

.OPERva   c>  
.OPERva   c>  
.OPERva   c>   Calculating wake trajectory ...
 Calculating source influence matrix ...

 Solving BL system ...

 Side 1  free  transition at x/c =  0.9247   77
 Side 2  free  transition at x/c =  0.4426   44

   1   rms: 0.2028E+00   max: -.2143E+01   T at   77  1   RLX: 0.233
       a = -1.000      CL =  0.3818
      Cm = -0.0649     CD =  0.03120   =>   CDf =  0.01003    CDp =  0.02117

 Side 1  free  transition at x/c =  0.9592   80
 Side 2  free  transition at x/c =  0.4388   44
 idif Ue xi dudx           2  0.39334911      4.67634201E-03   84.114700    
 Uenew xinew           3  0.22481103      2.67267227E-03

   2   rms: 0.3435E+00   max: 0.7655E+00   T at   44  2   RLX: 0.574
       a = -1.000      CL =  0.1811
      Cm = -0.0382     CD =  0.03183   =>   CDf =  0.01060    CDp =  0.02123

 Side 1  free  transition at x/c =  0.9901   80
 Side 2  free  transition at x/c =  0.4284   45

   3   rms: 0.9744E-01   max: -.9251E+00   T at   80  1   RLX: 0.541
       a = -1.000      CL =  0.1457
      Cm = -0.0334     CD =  0.03285   =>   CDf =  0.01009    CDp =  0.02276

 Side 1 forced transition at x/c =  0.9997   81
 Side 2  free  transition at x/c =  0.4256   45

   4   rms: 0.3816E-01   max: -.2614E+00   D at   81  1
       a = -1.000      CL =  0.1662
      Cm = -0.0387     CD =  0.03103   =>   CDf =  0.00996    CDp =  0.02107

 Side 1 forced transition at x/c =  0.9997   81
 Side 2  free  transition at x/c =  0.4236   45

   5   rms: 0.3823E-02   max: 0.3037E-01   D at   90  2
       a = -1.000      CL =  0.1646
      Cm = -0.0385     CD =  0.03140   =>   CDf =  0.00995    CDp =  0.02145

 Side 1 forced transition at x/c =  0.9997   81
 Side 2  free  transition at x/c =  0.4233   45

   6   rms: 0.8265E-04   max: -.6030E-03   D at   88  2
       a = -1.000      CL =  0.1646
      Cm = -0.0385     CD =  0.03139   =>   CDf =  0.00995    CDp =  0.02144
 plradd ia,ip,cpol            4          80  0.12616765    

 Point added to stored polar  1
 Save file unspecified or not available
 Dump file unspecified or not available

.OPERva   c>  
.OPERva   c>  
.OPERva   c>   Calculating wake trajectory ...
 Calculating source influence matrix ...

 Solving BL system ...

 Side 1 forced transition at x/c =  0.9997   81
 Side 2  free  transition at x/c =  0.4233   45
 idif Ue xi dudx           1  0.29886040      3.38006020E-03   88.418663    
 Uenew xinew           2  0.12696877      1.43599510E-03

   1   rms: 0.1545E+00   max: 0.6665E+00   T at   45  2
       a = -2.000      CL =  0.0870
      Cm = -0.0383     CD =  0.03015   =>   CDf =  0.01010    CDp =  0.02005

 Side 1 forced transition at x/c =  0.9997   80
 Side 2  free  transition at x/c =  0.4052   44

   2   rms: 0.3316E-01   max: -.2849E+00   D at   45  2
       a = -2.000      CL =  0.0782
      Cm = -0.0370     CD =  0.03127   =>   CDf =  0.01000    CDp =  0.02127

 Side 1 forced transition at x/c =  0.9997   80
 Side 2  free  transition at x/c =  0.4034   44

   3   rms: 0.4567E-02   max: 0.2104E-01   T at   44  2
       a = -2.000      CL =  0.0771
      Cm = -0.0371     CD =  0.03123   =>   CDf =  0.00977    CDp =  0.02146

 Side 1 forced transition at x/c =  0.9997   80
 Side 2  free  transition at x/c =  0.4027   44

   4   rms: 0.1227E-03   max: -.5355E-03   D at   54  2
       a = -2.000      CL =  0.0771
      Cm = -0.0371     CD =  0.03122   =>   CDf =  0.00973    CDp =  0.02149

 Side 1 forced transition at x/c =  0.9997   80
 Side 2  free  transition at x/c =  0.4027   44

   5   rms: 0.3372E-05   max: -.1846E-04   D at   90  2
       a = -2.000      CL =  0.0771
      Cm = -0.0371     CD =  0.03122   =>   CDf =  0.00973    CDp =  0.02149
 plradd ia,ip,cpol            5          79  2.69980039E-02

 Point added to stored polar  1
 Save file unspecified or not available
 Dump file unspecified or not available

.OPERva   c>  
.OPERva   c>  
.OPERva   c>   Calculating wake trajectory ...
 Calculating source influence matrix ...

 Solving BL system ...

 Side 1 forced transition at x/c =  0.9997   80
 Side 2  free  transition at x/c =  0.4027   44
 idif Ue xi dudx           1  0.29002473      3.93927097E-03   73.623962    
 Uenew xinew           2  0.13277331      1.80339813E-03

   1   rms: 0.1614E+00   max: 0.4236E+00   D at   62  2
       a = -3.000      CL = -0.0198
      Cm = -0.0347     CD =  0.03179   =>   CDf =  0.00984    CDp =  0.02195

 Side 1 forced transition at x/c =  0.9997   79
 Side 2  free  transition at x/c =  0.3996   45

   2   rms: 0.3336E-01   max: 0.2558E+00   D at   45  2
       a = -3.000      CL = -0.0272
      Cm = -0.0335     CD =  0.03345   =>   CDf =  0.00923    CDp =  0.02422

 Side 1 forced transition at x/c =  0.9997   79
 Side 2  free  transition at x/c =  0.3903   44

   3   rms: 0.2316E-01   max: 0.1621E+00   T at   44  2
       a = -3.000      CL = -0.0281
      Cm = -0.0334     CD =  0.03336   =>   CDf =  0.00901    CDp =  0.02435

 Side 1 forced transition at x/c =  0.9997   79
 Side 2  free  transition at x/c =  0.3878   44

   4   rms: 0.5174E-02   max: -.2450E-01   D at   53  2
       a = -3.000      CL = -0.0273
      Cm = -0.0335     CD =  0.03352   =>   CDf =  0.00904    CDp =  0.02448

 Side 1 forced transition at x/c =  0.9997   79
 Side 2  free  transition at x/c =  0.3876   44

   5   rms: 0.1091E-03   max: -.9777E-03   D at   89  2
       a = -3.000      CL = -0.0273
      Cm = -0.0335     CD =  0.03354   =>   CDf =  0.00908    CDp =  0.02446

 Side 1 forced transition at x/c =  0.9997   79
 Side 2  free  transition at x/c =  0.3876   44

   6   rms: 0.1921E-05   max: -.1856E-04   D at    4  1
       a = -3.000      CL = -0.0273
      Cm = -0.0335     CD =  0.03354   =>   CDf =  0.00907    CDp =  0.02446
 plradd ia,ip,cpol            6          78  9.97538585E-03

 Point added to stored polar  1
 Save file unspecified or not available
 Dump file unspecified or not available

.OPERva   c>  
.OPERva   c>  
.OPERva   c>   Calculating wake trajectory ...
 Calculating source influence matrix ...

 Solving BL system ...

 Side 1 forced transition at x/c =  0.9997   79
 Side 2  free  transition at x/c =  0.3876   44
 idif Ue xi dudx           1  0.24325725      4.03106213E-03   60.345695    
 Uenew xinew           2  0.10366938      1.71792507E-03

   1   rms: 0.1914E+00   max: 0.1476E+01   T at   44  2   RLX: 0.804
       a = -4.000      CL = -0.1232
      Cm = -0.0281     CD =  0.03598   =>   CDf =  0.00915    CDp =  0.02683

 Side 1 forced transition at x/c =  0.9997   78
 Side 2  free  transition at x/c =  0.4092   47

   2   rms: 0.1359E+00   max: 0.1254E+01   T at   47  2
       a = -4.000      CL = -0.1187
      Cm = -0.0340     CD =  0.04077   =>   CDf =  0.00852    CDp =  0.03225

 MRCHDU: Convergence failed at  53  side 2    Res =  0.1109E+01
 MRCHDU: Convergence failed at  54  side 2    Res =  0.3956E+01
 MRCHDU: Convergence failed at  55  side 2    Res =  0.8856E+01
 MRCHDU: Convergence failed at  56  side 2    Res =  0.4070E+01
 MRCHDU: Convergence failed at  57  side 2    Res =  0.2621E+01
 MRCHDU: Convergence failed at  58  side 2    Res =  0.2038E+01
 MRCHDU: Convergence failed at  59  side 2    Res =  0.1717E+01
 MRCHDU: Convergence failed at  60  side 2    Res =  0.2037E+01
 MRCHDU: Convergence failed at  61  side 2    Res =  0.2418E+01
 MRCHDU: Convergence failed at  62  side 2    Res =  0.2944E+01
 MRCHDU: Convergence failed at  63  side 2    Res =  0.3527E+01
 Side 1 forced transition at x/c =  0.9997   78
 Side 2  free  transition at x/c =  0.3801   45

   3   rms: 0.1667E+00   max: -.2443E+01   T at   45  2   RLX: 0.205
       a = -4.000      CL = -0.1625
      Cm = -0.0211     CD =  0.03659   =>   CDf =  0.00788    CDp =  0.02871

 Side 1 forced transition at x/c =  0.9997   78
 Side 2  free  transition at x/c =  0.3921   46

   4   rms: 0.1333E+01   max: -.2180E+02   T at   46  2   RLX: 0.023
       a = -4.000      CL = -0.1597
      Cm = -0.0226     CD =  0.03576   =>   CDf =  0.00866    CDp =  0.02710

 Side 1 forced transition at x/c =  0.9997   78
 Side 2  free  transition at x/c =  0.4021   46

   5   rms: 0.6257E-01   max: -.4769E+00   D at   46  2
       a = -4.000      CL = -0.1393
      Cm = -0.0274     CD =  0.04197   =>   CDf =  0.00843    CDp =  0.03354

 Side 1 forced transition at x/c =  0.9997   78
 Side 2  free  transition at x/c =  0.4239   48

   6   rms: 0.1895E+00   max: 0.1491E+01   T at   48  2
       a = -4.000      CL = -0.1263
      Cm = -0.0317     CD =  0.04257   =>   CDf =  0.00863    CDp =  0.03394

 MRCHDU: Convergence failed at  52  side 2    Res =  0.3912E+01
 MRCHDU: Convergence failed at  53  side 2    Res =  0.1764E+01
 MRCHDU: Convergence failed at  54  side 2    Res =  0.3570E+01
 MRCHDU: Convergence failed at  55  side 2    Res =  0.1490E+02
 MRCHDU: Convergence failed at  56  side 2    Res =  0.1379E+02
 MRCHDU: Convergence failed at  57  side 2    Res =  0.5566E+01
 MRCHDU: Convergence failed at  58  side 2    Res =  0.3536E+01
 MRCHDU: Convergence failed at  59  side 2    Res =  0.2749E+01
 MRCHDU: Convergence failed at  60  side 2    Res =  0.2304E+01
 MRCHDU: Convergence failed at  61  side 2    Res =  0.2239E+01
 MRCHDU: Convergence failed at  62  side 2    Res =  0.2411E+01
 MRCHDU: Convergence failed at  63  side 2    Res =  0.2536E+01
 MRCHDU: Convergence failed at  64  side 2    Res =  0.2273E+01
 Side 1 forced transition at x/c =  0.9997   78
 Side 2  free  transition at x/c =  0.3907   45

   7   rms: 0.2784E+00   max: -.3721E+01   T at   45  2   RLX: 0.134
       a = -4.000      CL = -0.1782
      Cm = -0.0135     CD =  0.03841   =>   CDf =  0.00758    CDp =  0.03083

 Side 1 forced transition at x/c =  0.9997   78
 Side 2  free  transition at x/c =  0.3936   46

   8   rms: 0.4418E+00   max: -.5505E+01   T at   46  2   RLX: 0.091
       a = -4.000      CL = -0.1715
      Cm = -0.0171     CD =  0.03338   =>   CDf =  0.00935    CDp =  0.02403

 Side 1 forced transition at x/c =  0.9997   78
 Side 2  free  transition at x/c =  0.4013   46

   9   rms: 0.1975E+00   max: -.3379E+01   T at   46  2   RLX: 0.148
       a = -4.000      CL = -0.1670
      Cm = -0.0187     CD =  0.03804   =>   CDf =  0.00894    CDp =  0.02911

 Side 1 forced transition at x/c =  0.9997   78
 Side 2  free  transition at x/c =  0.3989   46

  10   rms: 0.9632E-01   max: -.6225E+00   T at   46  2   RLX: 0.803
       a = -4.000      CL = -0.1477
      Cm = -0.0249     CD =  0.04112   =>   CDf =  0.00862    CDp =  0.03250

 Side 1 forced transition at x/c =  0.9997   78
 Side 2  free  transition at x/c =  0.4040   46

  11   rms: 0.3598E-01   max: -.5248E+00   D at   46  2   RLX: 0.953
       a = -4.000      CL = -0.1394
      Cm = -0.0271     CD =  0.04251   =>   CDf =  0.00807    CDp =  0.03444

 Side 1 forced transition at x/c =  0.9997   78
 Side 2  free  transition at x/c =  0.4240   48

  12   rms: 0.2207E+00   max: 0.1690E+01   T at   48  2   RLX: 0.888
       a = -4.000      CL = -0.1265
      Cm = -0.0314     CD =  0.04183   =>   CDf =  0.00875    CDp =  0.03308

 MRCHDU: Convergence failed at  51  side 2    Res =  0.1259E+01
 MRCHDU: Convergence failed at  52  side 2    Res =  0.2207E+01
 MRCHDU: Convergence failed at  53  side 2    Res =  0.3456E+01
 MRCHDU: Convergence failed at  54  side 2    Res =  0.7569E+01
 MRCHDU: Convergence failed at  55  side 2    Res =  0.4272E+02
 MRCHDU: Convergence failed at  56  side 2    Res =  0.8511E+01
 MRCHDU: Convergence failed at  57  side 2    Res =  0.5015E+01
 MRCHDU: Convergence failed at  58  side 2    Res =  0.3668E+01
 MRCHDU: Convergence failed at  59  side 2    Res =  0.3127E+01
 MRCHDU: Convergence failed at  60  side 2    Res =  0.2708E+01
 MRCHDU: Convergence failed at  61  side 2    Res =  0.2757E+01
 MRCHDU: Convergence failed at  62  side 2    Res =  0.3054E+01
 MRCHDU: Convergence failed at  63  side 2    Res =  0.3244E+01
 MRCHDU: Convergence failed at  64  side 2    Res =  0.2939E+01
 MRCHDU: Convergence failed at  65  side 2    Res =  0.2624E+01
 MRCHDU: Convergence failed at  66  side 2    Res =  0.3486E+01
 MRCHDU: Convergence failed at  67  side 2    Res =  0.4866E+01
 MRCHDU: Convergence failed at  68  side 2    Res =  0.6980E+01
 MRCHDU: Convergence failed at  69  side 2    Res =  0.1148E+02
 MRCHDU: Convergence failed at  70  side 2    Res =  0.2333E+02
 MRCHDU: Convergence failed at  71  side 2    Res =  0.4105E+04
 MRCHDU: Convergence failed at  72  side 2    Res =  0.2617E+02
 MRCHDU: Convergence failed at  73  side 2    Res =  0.1406E+02
 MRCHDU: Convergence failed at  74  side 2    Res =  0.9972E+01
 MRCHDU: Convergence failed at  75  side 2    Res =  0.7943E+01
 MRCHDU: Convergence failed at  76  side 2    Res =  0.6724E+01
 MRCHDU: Convergence failed at  77  side 2    Res =  0.5944E+01
 MRCHDU: Convergence failed at  78  side 2    Res =  0.5447E+01
 MRCHDU: Convergence failed at  79  side 2    Res =  0.5284E+01
 MRCHDU: Convergence failed at  80  side 2    Res =  0.4975E+01
 MRCHDU: Convergence failed at  81  side 2    Res =  0.4815E+01
 MRCHDU: Convergence failed at  82  side 2    Res =  0.4742E+01
 MRCHDU: Convergence failed at  83  side 2    Res =  0.4797E+01
 MRCHDU: Convergence failed at  84  side 2    Res =  0.5356E+01
 Side 1 forced transition at x/c =  0.9997   78
 Side 2  free  transition at x/c =  0.3901   45

  13   rms: 0.2463E+00   max: -.1612E+01   T at   45  2   RLX: 0.310
       a = -4.000      CL = -0.1716
      Cm =  0.0056     CD =  0.03168   =>   CDf =  0.00652    CDp =  0.02516

 Side 1 forced transition at x/c =  0.9997   78
 Side 2  free  transition at x/c =  0.3937   46

  14   rms: 0.1235E+01   max: -.1553E+02   T at   46  2   RLX: 0.032
       a = -4.000      CL = -0.1648
      Cm =  0.0012     CD =  0.02967   =>   CDf =  0.01004    CDp =  0.01963

 Side 1 forced transition at x/c =  0.9997   78
 Side 2  free  transition at x/c =  0.4006   46

  15   rms: 0.2362E+00   max: -.3931E+01   T at   46  2   RLX: 0.127
       a = -4.000      CL = -0.1620
      Cm = -0.0027     CD =  0.03384   =>   CDf =  0.00964    CDp =  0.02419

 Side 1 forced transition at x/c =  0.9997   78
 Side 2  free  transition at x/c =  0.3991   46

  16   rms: 0.1312E+00   max: -.7667E+00   T at   46  2   RLX: 0.652
       a = -4.000      CL = -0.1505
      Cm = -0.0185     CD =  0.03890   =>   CDf =  0.00925    CDp =  0.02965

 Side 1 forced transition at x/c =  0.9997   78
 Side 2  free  transition at x/c =  0.4026   46

  17   rms: 0.4459E-01   max: -.5850E+00   D at   46  2   RLX: 0.855
       a = -4.000      CL = -0.1433
      Cm = -0.0250     CD =  0.04230   =>   CDf =  0.00834    CDp =  0.03395

 Side 1 forced transition at x/c =  0.9997   78
 Side 2  free  transition at x/c =  0.4338   49

  18   rms: 0.1428E+00   max: -.1297E+01   T at   49  2   RLX: 0.386
       a = -4.000      CL = -0.1496
      Cm = -0.0261     CD =  0.03244   =>   CDf =  0.00876    CDp =  0.02368

 Side 1 forced transition at x/c =  0.9997   78
 Side 2  free  transition at x/c =  0.4421   49

  19   rms: 0.2056E+00   max: -.3636E+01   T at   49  2   RLX: 0.138
       a = -4.000      CL = -0.1651
      Cm = -0.0215     CD =  0.03653   =>   CDf =  0.00800    CDp =  0.02853

 Side 1 forced transition at x/c =  0.9997   78
 Side 2  free  transition at x/c =  0.4582   50

  20   rms: 0.1945E+00   max: -.3170E+01   T at   50  2   RLX: 0.158
       a = -4.000      CL = -0.1702
      Cm = -0.0201     CD =  0.03558   =>   CDf =  0.00794    CDp =  0.02764

 Side 1 forced transition at x/c =  0.9997   78
 Side 2  free  transition at x/c =  0.4832   52

  21   rms: 0.1403E+00   max: 0.1466E+01   T at   52  2
       a = -4.000      CL = -0.1473
      Cm = -0.0268     CD =  0.04127   =>   CDf =  0.00793    CDp =  0.03334

 MRCHDU: Convergence failed at  57  side 2    Res =  0.1271E+01
 MRCHDU: Convergence failed at  58  side 2    Res =  0.2602E+01
 MRCHDU: Convergence failed at  59  side 2    Res =  0.1723E+02
 MRCHDU: Convergence failed at  60  side 2    Res =  0.5052E+01
 MRCHDU: Convergence failed at  61  side 2    Res =  0.2565E+01
 MRCHDU: Convergence failed at  62  side 2    Res =  0.1882E+01
 MRCHDU: Convergence failed at  63  side 2    Res =  0.1833E+01
 MRCHDU: Convergence failed at  64  side 2    Res =  0.2050E+01
 MRCHDU: Convergence failed at  65  side 2    Res =  0.2121E+01
 MRCHDU: Convergence failed at  66  side 2    Res =  0.2386E+01
 MRCHDU: Convergence failed at  67  side 2    Res =  0.2754E+01
 MRCHDU: Convergence failed at  68  side 2    Res =  0.3324E+01
 MRCHDU: Convergence failed at  69  side 2    Res =  0.5275E+01
 MRCHDU: Convergence failed at  70  side 2    Res =  0.8295E+01
 MRCHDU: Convergence failed at  71  side 2    Res =  0.1782E+02
 MRCHDU: Convergence failed at  72  side 2    Res =  0.1710E+03
 MRCHDU: Convergence failed at  73  side 2    Res =  0.2276E+02
 MRCHDU: Convergence failed at  74  side 2    Res =  0.1033E+02
 MRCHDU: Convergence failed at  75  side 2    Res =  0.7132E+01
 MRCHDU: Convergence failed at  76  side 2    Res =  0.5582E+01
 MRCHDU: Convergence failed at  77  side 2    Res =  0.4672E+01
 MRCHDU: Convergence failed at  78  side 2    Res =  0.4084E+01
 MRCHDU: Convergence failed at  79  side 2    Res =  0.3744E+01
 MRCHDU: Convergence failed at  80  side 2    Res =  0.3463E+01
 MRCHDU: Convergence failed at  81  side 2    Res =  0.3276E+01
 MRCHDU: Convergence failed at  82  side 2    Res =  0.3123E+01
 MRCHDU: Convergence failed at  83  side 2    Res =  0.3040E+01
 MRCHDU: Convergence failed at  84  side 2    Res =  0.3056E+01
 Side 1 forced transition at x/c =  0.9997   78
 Side 2  free  transition at x/c =  0.4461   49

  22   rms: 0.1635E+00   max: -.5158E+00   C at   84  2   RLX: 0.969
       a = -4.000      CL = -0.0978
      Cm = -0.0305     CD =  0.03596   =>   CDf =  0.00645    CDp =  0.02951

 Side 1 forced transition at x/c =  0.9997   78
 Side 2  free  transition at x/c =  0.4514   50

  23   rms: 0.1688E+00   max: 0.2239E+01   T at   50  2   RLX: 0.670
       a = -4.000      CL = -0.1133
      Cm = -0.0322     CD =  0.03964   =>   CDf =  0.00835    CDp =  0.03129

 MRCHDU: Convergence failed at  58  side 2    Res =  0.7587E+01
 MRCHDU: Convergence failed at  59  side 2    Res =  0.3969E+01
 MRCHDU: Convergence failed at  60  side 2    Res =  0.2104E+01
 Side 1 forced transition at x/c =  0.9997   78
 Side 2  free  transition at x/c =  0.4193   47

  24   rms: 0.1381E+00   max: -.1900E+01   T at   47  2   RLX: 0.263
       a = -4.000      CL = -0.1337
      Cm = -0.0264     CD =  0.03907   =>   CDf =  0.00807    CDp =  0.03101

 Side 1 forced transition at x/c =  0.9997   78
 Side 2  free  transition at x/c =  0.4215   48

  25   rms: 0.1323E+01   max: 0.1689E+02   T at   48  2   RLX: 0.089
       a = -4.000      CL = -0.1155
      Cm = -0.0291     CD =  0.04469   =>   CDf =  0.00832    CDp =  0.03636

 Side 1 forced transition at x/c =  0.9997   78
 Side 2  free  transition at x/c =  0.4027   46

  26   rms: 0.2741E+00   max: -.3364E+01   T at   46  2   RLX: 0.149
       a = -4.000      CL = -0.1294
      Cm = -0.0259     CD =  0.03555   =>   CDf =  0.00872    CDp =  0.02683

 Side 1 forced transition at x/c =  0.9997   78
 Side 2  free  transition at x/c =  0.4091   47

  27   rms: 0.2705E+00   max: -.5048E+01   T at   47  2   RLX: 0.099
       a = -4.000      CL = -0.1317
      Cm = -0.0262     CD =  0.03519   =>   CDf =  0.00864    CDp =  0.02655

 Side 1 forced transition at x/c =  0.9997   78
 Side 2  free  transition at x/c =  0.4116   47

  28   rms: 0.8746E-01   max: -.8874E+00   T at   47  2   RLX: 0.563
       a = -4.000      CL = -0.1452
      Cm = -0.0243     CD =  0.04018   =>   CDf =  0.00827    CDp =  0.03192

 Side 1 forced transition at x/c =  0.9997   78
 Side 2  free  transition at x/c =  0.4156   47

  29   rms: 0.3903E-01   max: -.6356E+00   D at   47  2   RLX: 0.787
       a = -4.000      CL = -0.1470
      Cm = -0.0249     CD =  0.04197   =>   CDf =  0.00794    CDp =  0.03403

 Side 1 forced transition at x/c =  0.9997   78
 Side 2  free  transition at x/c =  0.4493   50

  30   rms: 0.3338E+00   max: 0.2356E+01   T at   50  2   RLX: 0.637
       a = -4.000      CL = -0.1378
      Cm = -0.0263     CD =  0.04455   =>   CDf =  0.00864    CDp =  0.03591

 MRCHDU: Convergence failed at  53  side 2    Res =  0.5620E+01
 MRCHDU: Convergence failed at  54  side 2    Res =  0.1750E+01
 MRCHDU: Convergence failed at  55  side 2    Res =  0.2769E+01
 MRCHDU: Convergence failed at  56  side 2    Res =  0.5997E+01
 MRCHDU: Convergence failed at  57  side 2    Res =  0.3537E+02
 MRCHDU: Convergence failed at  58  side 2    Res =  0.1105E+02
 MRCHDU: Convergence failed at  59  side 2    Res =  0.5025E+01
 MRCHDU: Convergence failed at  60  side 2    Res =  0.3367E+01
 MRCHDU: Convergence failed at  61  side 2    Res =  0.2413E+01
 MRCHDU: Convergence failed at  62  side 2    Res =  0.1961E+01
 MRCHDU: Convergence failed at  63  side 2    Res =  0.1596E+01
 MRCHDU: Convergence failed at  64  side 2    Res =  0.1244E+01
 Side 1 forced transition at x/c =  0.9997   78
 Side 2  free  transition at x/c =  0.4207   48

  31   rms: 0.1467E+00   max: 0.1195E+01   D at   51  2   RLX: 0.492
       a = -4.000      CL = -0.1686
      Cm = -0.0184     CD =  0.03345   =>   CDf =  0.00760    CDp =  0.02585

 Side 1 forced transition at x/c =  0.9997   78
 Side 2  free  transition at x/c =  0.4317   48

  32   rms: 0.1286E+00   max: -.1738E+01   T at   48  2   RLX: 0.288
       a = -4.000      CL = -0.1601
      Cm = -0.0214     CD =  0.03840   =>   CDf =  0.00826    CDp =  0.03013

 Side 1 forced transition at x/c =  0.9997   78
 Side 2  free  transition at x/c =  0.4333   48

  33   rms: 0.4552E-01   max: -.4216E+00   D at   49  2
       a = -4.000      CL = -0.1477
      Cm = -0.0249     CD =  0.04270   =>   CDf =  0.00813    CDp =  0.03457

 Side 1 forced transition at x/c =  0.9997   78
 Side 2  free  transition at x/c =  0.4483   50

  34   rms: 0.2780E+00   max: 0.2060E+01   T at   50  2   RLX: 0.728
       a = -4.000      CL = -0.1380
      Cm = -0.0259     CD =  0.04605   =>   CDf =  0.00846    CDp =  0.03759

 MRCHDU: Convergence failed at  54  side 2    Res =  0.1239E+02
 MRCHDU: Convergence failed at  55  side 2    Res =  0.1570E+01
 MRCHDU: Convergence failed at  56  side 2    Res =  0.1427E+01
 MRCHDU: Convergence failed at  57  side 2    Res =  0.2439E+01
 MRCHDU: Convergence failed at  58  side 2    Res =  0.4081E+01
 MRCHDU: Convergence failed at  59  side 2    Res =  0.8545E+01
 MRCHDU: Convergence failed at  60  side 2    Res =  0.9494E+02
 MRCHDU: Convergence failed at  61  side 2    Res =  0.7523E+01
 MRCHDU: Convergence failed at  62  side 2    Res =  0.3968E+01
 MRCHDU: Convergence failed at  63  side 2    Res =  0.3010E+01
 Side 1 forced transition at x/c =  0.9997   78
 Side 2  free  transition at x/c =  0.4257   48

  35   rms: 0.1671E+00   max: -.1301E+01   T at   48  2   RLX: 0.384
       a = -4.000      CL = -0.1660
      Cm = -0.0181     CD =  0.03434   =>   CDf =  0.00785    CDp =  0.02649

 Side 1 forced transition at x/c =  0.9997   78
 Side 2  free  transition at x/c =  0.4380   49

  36   rms: 0.1797E+00   max: -.2142E+01   T at   49  2   RLX: 0.233
       a = -4.000      CL = -0.1616
      Cm = -0.0207     CD =  0.03440   =>   CDf =  0.00857    CDp =  0.02583

 Side 1 forced transition at x/c =  0.9997   78
 Side 2  free  transition at x/c =  0.4498   50

  37   rms: 0.1707E+00   max: 0.1525E+01   T at   50  2   RLX: 0.983
       a = -4.000      CL = -0.1388
      Cm = -0.0274     CD =  0.04401   =>   CDf =  0.00834    CDp =  0.03566

 MRCHDU: Convergence failed at  56  side 2    Res =  0.1123E+01
 MRCHDU: Convergence failed at  57  side 2    Res =  0.2426E+01
 MRCHDU: Convergence failed at  58  side 2    Res =  0.2286E+01
 MRCHDU: Convergence failed at  59  side 2    Res =  0.5250E+01
 MRCHDU: Convergence failed at  60  side 2    Res =  0.2238E+02
 MRCHDU: Convergence failed at  61  side 2    Res =  0.4105E+01
 MRCHDU: Convergence failed at  62  side 2    Res =  0.2618E+01
 Side 1 forced transition at x/c =  0.9997   78
 Side 2  free  transition at x/c =  0.4233   48

  38   rms: 0.1934E+00   max: -.3126E+01   T at   48  2   RLX: 0.160
       a = -4.000      CL = -0.1665
      Cm = -0.0192     CD =  0.03543   =>   CDf =  0.00784    CDp =  0.02758

 Side 1 forced transition at x/c =  0.9997   78
 Side 2  free  transition at x/c =  0.4349   49

  39   rms: 0.4483E+00   max: -.7878E+01   T at   49  2   RLX: 0.063
       a = -4.000      CL = -0.1644
      Cm = -0.0206     CD =  0.03484   =>   CDf =  0.00829    CDp =  0.02655

 Side 1 forced transition at x/c =  0.9997   78
 Side 2  free  transition at x/c =  0.4441   49

  40   rms: 0.5683E-01   max: -.4920E+00   D at   49  2
       a = -4.000      CL = -0.1550
      Cm = -0.0235     CD =  0.04164   =>   CDf =  0.00808    CDp =  0.03356

 Side 1 forced transition at x/c =  0.9997   78
 Side 2  free  transition at x/c =  0.4649   51

  41   rms: 0.1804E+00   max: 0.1361E+01   T at   51  2
       a = -4.000      CL = -0.1440
      Cm = -0.0267     CD =  0.04376   =>   CDf =  0.00826    CDp =  0.03551

 MRCHDU: Convergence failed at  56  side 2    Res =  0.1435E+01
 MRCHDU: Convergence failed at  57  side 2    Res =  0.1252E+01
 MRCHDU: Convergence failed at  58  side 2    Res =  0.2657E+01
 MRCHDU: Convergence failed at  59  side 2    Res =  0.8226E+01
 MRCHDU: Convergence failed at  60  side 2    Res =  0.1041E+02
 MRCHDU: Convergence failed at  61  side 2    Res =  0.3645E+01
 MRCHDU: Convergence failed at  62  side 2    Res =  0.1982E+01
 MRCHDU: Convergence failed at  63  side 2    Res =  0.1469E+01
 Side 1 forced transition at x/c =  0.9997   78
 Side 2  free  transition at x/c =  0.4351   49

  42   rms: 0.2681E+00   max: -.4425E+01   T at   49  2   RLX: 0.113
       a = -4.000      CL = -0.1777
      Cm = -0.0163     CD =  0.03542   =>   CDf =  0.00758    CDp =  0.02783

 Side 1 forced transition at x/c =  0.9997   78
 Side 2  free  transition at x/c =  0.4468   49

  43   rms: 0.7118E-01   max: -.5269E+00   D at   50  2   RLX: 0.949
       a = -4.000      CL = -0.1541
      Cm = -0.0228     CD =  0.04298   =>   CDf =  0.00798    CDp =  0.03500

 Side 1 forced transition at x/c =  0.9997   78
 Side 2  free  transition at x/c =  0.4528   50

  44   rms: 0.1871E+01   max: -.2221E+02   T at   50  2   RLX: 0.023
       a = -4.000      CL = -0.1628
      Cm = -0.0208     CD =  0.03336   =>   CDf =  0.00823    CDp =  0.02513

 Side 1 forced transition at x/c =  0.9997   78
 Side 2  free  transition at x/c =  0.4626   51

  45   rms: 0.5513E+00   max: 0.6183E+01   T at   51  2   RLX: 0.243
       a = -4.000      CL = -0.1303
      Cm = -0.0295     CD =  0.04123   =>   CDf =  0.00780    CDp =  0.03343

 MRCHDU: Convergence failed at  55  side 2    Res =  0.2652E+01
 MRCHDU: Convergence failed at  56  side 2    Res =  0.1880E+01
 MRCHDU: Convergence failed at  57  side 2    Res =  0.1134E+02
 MRCHDU: Convergence failed at  58  side 2    Res =  0.3042E+01
 MRCHDU: Convergence failed at  59  side 2    Res =  0.2765E+01
 MRCHDU: Convergence failed at  60  side 2    Res =  0.2624E+01
 MRCHDU: Convergence failed at  61  side 2    Res =  0.3916E+01
 MRCHDU: Convergence failed at  62  side 2    Res =  0.5694E+01
 MRCHDU: Convergence failed at  63  side 2    Res =  0.1327E+02
 MRCHDU: Convergence failed at  64  side 2    Res =  0.1784E+02
 MRCHDU: Convergence failed at  65  side 2    Res =  0.8073E+01
 MRCHDU: Convergence failed at  66  side 2    Res =  0.1180E+02
 MRCHDU: Convergence failed at  67  side 2    Res =  0.1249E+02
 MRCHDU: Convergence failed at  68  side 2    Res =  0.1228E+02
 MRCHDU: Convergence failed at  69  side 2    Res =  0.1103E+02
 MRCHDU: Convergence failed at  70  side 2    Res =  0.9539E+01
 MRCHDU: Convergence failed at  71  side 2    Res =  0.8157E+01
 MRCHDU: Convergence failed at  72  side 2    Res =  0.7068E+01
 MRCHDU: Convergence failed at  73  side 2    Res =  0.6170E+01
 MRCHDU: Convergence failed at  74  side 2    Res =  0.5478E+01
 MRCHDU: Convergence failed at  75  side 2    Res =  0.4961E+01
 MRCHDU: Convergence failed at  76  side 2    Res =  0.4554E+01
 MRCHDU: Convergence failed at  77  side 2    Res =  0.4232E+01
 MRCHDU: Convergence failed at  78  side 2    Res =  0.4046E+01
 MRCHDU: Convergence failed at  79  side 2    Res =  0.3827E+01
 MRCHDU: Convergence failed at  80  side 2    Res =  0.3683E+01
 MRCHDU: Convergence failed at  81  side 2    Res =  0.3585E+01
 MRCHDU: Convergence failed at  82  side 2    Res =  0.3512E+01
 MRCHDU: Convergence failed at  83  side 2    Res =  0.3498E+01
 MRCHDU: Convergence failed at  84  side 2    Res =  0.3600E+01
 Side 1 forced transition at x/c =  0.9997   78
 Side 2  free  transition at x/c =  0.4253   48

  46   rms: 0.1855E+00   max: -.1184E+01   T at   48  2   RLX: 0.422
       a = -4.000      CL = -0.1595
      Cm = -0.0069     CD =  0.03383   =>   CDf =  0.00653    CDp =  0.02730

 Side 1 forced transition at x/c =  0.9997   78
 Side 2  free  transition at x/c =  0.4375   49

  47   rms: 0.1789E+00   max: -.2825E+01   T at   49  2   RLX: 0.177
       a = -4.000      CL = -0.1534
      Cm = -0.0123     CD =  0.03472   =>   CDf =  0.00870    CDp =  0.02603

 Side 1 forced transition at x/c =  0.9997   78
 Side 2  free  transition at x/c =  0.4432   49

  48   rms: 0.8426E-01   max: -.5504E+00   D at   49  2   RLX: 0.908
       a = -4.000      CL = -0.1576
      Cm = -0.0215     CD =  0.04133   =>   CDf =  0.00841    CDp =  0.03293

 Side 1 forced transition at x/c =  0.9997   78
 Side 2  free  transition at x/c =  0.4705   51

  49   rms: 0.2054E+00   max: 0.1256E+01   T at   51  2
       a = -4.000      CL = -0.1434
      Cm = -0.0284     CD =  0.04131   =>   CDf =  0.00838    CDp =  0.03293

 MRCHDU: Convergence failed at  55  side 2    Res =  0.3000E+01
 MRCHDU: Convergence failed at  56  side 2    Res =  0.2237E+01
 MRCHDU: Convergence failed at  57  side 2    Res =  0.4947E+01
 MRCHDU: Convergence failed at  58  side 2    Res =  0.4753E+02
 MRCHDU: Convergence failed at  59  side 2    Res =  0.6028E+01
 MRCHDU: Convergence failed at  60  side 2    Res =  0.3554E+01
 MRCHDU: Convergence failed at  61  side 2    Res =  0.2604E+01
 MRCHDU: Convergence failed at  62  side 2    Res =  0.2114E+01
 MRCHDU: Convergence failed at  63  side 2    Res =  0.2544E+01
 MRCHDU: Convergence failed at  64  side 2    Res =  0.2783E+01
 MRCHDU: Convergence failed at  65  side 2    Res =  0.2910E+01
 MRCHDU: Convergence failed at  66  side 2    Res =  0.3785E+01
 MRCHDU: Convergence failed at  67  side 2    Res =  0.5607E+01
 MRCHDU: Convergence failed at  68  side 2    Res =  0.9381E+01
 MRCHDU: Convergence failed at  69  side 2    Res =  0.2407E+02
 MRCHDU: Convergence failed at  70  side 2    Res =  0.5988E+02
 MRCHDU: Convergence failed at  71  side 2    Res =  0.1569E+02
 MRCHDU: Convergence failed at  72  side 2    Res =  0.9184E+01
 MRCHDU: Convergence failed at  73  side 2    Res =  0.6746E+01
 MRCHDU: Convergence failed at  74  side 2    Res =  0.5462E+01
 MRCHDU: Convergence failed at  75  side 2    Res =  0.4749E+01
 MRCHDU: Convergence failed at  76  side 2    Res =  0.4215E+01
 MRCHDU: Convergence failed at  77  side 2    Res =  0.3860E+01
 MRCHDU: Convergence failed at  78  side 2    Res =  0.3587E+01
 MRCHDU: Convergence failed at  79  side 2    Res =  0.3381E+01
 MRCHDU: Convergence failed at  80  side 2    Res =  0.3230E+01
 MRCHDU: Convergence failed at  81  side 2    Res =  0.3134E+01
 MRCHDU: Convergence failed at  82  side 2    Res =  0.3127E+01
 MRCHDU: Convergence failed at  83  side 2    Res =  0.3128E+01
 MRCHDU: Convergence failed at  84  side 2    Res =  0.3220E+01
 Side 1 forced transition at x/c =  0.9997   78
 Side 2  free  transition at x/c =  0.4290   48

  50   rms: 0.1851E+00   max: -.5558E+00   T at   48  2   RLX: 0.900
       a = -4.000      CL = -0.0857
      Cm = -0.0299     CD =  0.03342   =>   CDf =  0.00643    CDp =  0.02699

 Side 1 forced transition at x/c =  0.9997   78
 Side 2  free  transition at x/c =  0.4341   49

  51   rms: 0.1268E+00   max: 0.1260E+01   T at   49  2
       a = -4.000      CL = -0.1237
      Cm = -0.0306     CD =  0.04170   =>   CDf =  0.00851    CDp =  0.03319

 Side 1 forced transition at x/c =  0.9997   78
 Side 2  free  transition at x/c =  0.4149   47

  52   rms: 0.1493E+00   max: -.1926E+01   T at   47  2   RLX: 0.260
       a = -4.000      CL = -0.1388
      Cm = -0.0272     CD =  0.03677   =>   CDf =  0.00838    CDp =  0.02840

 Side 1 forced transition at x/c =  0.9997   78
 Side 2  free  transition at x/c =  0.4255   48

  53   rms: 0.1672E+00   max: -.2481E+01   T at   48  2   RLX: 0.202
       a = -4.000      CL = -0.1428
      Cm = -0.0267     CD =  0.03531   =>   CDf =  0.00839    CDp =  0.02692

 Side 1 forced transition at x/c =  0.9997   78
 Side 2  free  transition at x/c =  0.4370   49

  54   rms: 0.1506E+00   max: 0.1557E+01   T at   49  2   RLX: 0.963
       a = -4.000      CL = -0.1316
      Cm = -0.0301     CD =  0.04210   =>   CDf =  0.00831    CDp =  0.03379

 MRCHDU: Convergence failed at  55  side 2    Res =  0.1058E+01
 MRCHDU: Convergence failed at  56  side 2    Res =  0.2124E+01
 MRCHDU: Convergence failed at  57  side 2    Res =  0.8463E+01
 MRCHDU: Convergence failed at  58  side 2    Res =  0.7621E+01
 MRCHDU: Convergence failed at  59  side 2    Res =  0.3134E+01
 MRCHDU: Convergence failed at  60  side 2    Res =  0.1912E+01
 MRCHDU: Convergence failed at  61  side 2    Res =  0.1483E+01
 MRCHDU: Convergence failed at  62  side 2    Res =  0.1214E+01
 MRCHDU: Convergence failed at  63  side 2    Res =  0.1462E+01
 Side 1 forced transition at x/c =  0.9997   78
 Side 2  free  transition at x/c =  0.4067   47

  55   rms: 0.5798E+00   max: -.9371E+01   T at   47  2   RLX: 0.053
       a = -4.000      CL = -0.1692
      Cm = -0.0190     CD =  0.03593   =>   CDf =  0.00774    CDp =  0.02819

 Side 1 forced transition at x/c =  0.9997   78
 Side 2  free  transition at x/c =  0.4180   47

  56   rms: 0.8069E-01   max: -.5830E+00   T at   47  2   RLX: 0.858
       a = -4.000      CL = -0.1473
      Cm = -0.0247     CD =  0.04268   =>   CDf =  0.00822    CDp =  0.03446

 Side 1 forced transition at x/c =  0.9997   78
 Side 2  free  transition at x/c =  0.4192   47

  57   rms: 0.2627E-01   max: -.4504E+00   D at   47  2
       a = -4.000      CL = -0.1421
      Cm = -0.0267     CD =  0.04221   =>   CDf =  0.00816    CDp =  0.03405

 Side 1 forced transition at x/c =  0.9997   78
 Side 2  free  transition at x/c =  0.4293   48

  58   rms: 0.3964E+00   max: 0.4847E+01   T at   48  2   RLX: 0.309
       a = -4.000      CL = -0.1204
      Cm = -0.0331     CD =  0.03407   =>   CDf =  0.00857    CDp =  0.02550

 MRCHDU: Convergence failed at  51  side 2    Res =  0.1354E+01
 MRCHDU: Convergence failed at  52  side 2    Res =  0.1060E+02
 MRCHDU: Convergence failed at  53  side 2    Res =  0.4495E+01
 MRCHDU: Convergence failed at  54  side 2    Res =  0.3202E+01
 MRCHDU: Convergence failed at  55  side 2    Res =  0.2988E+01
 MRCHDU: Convergence failed at  56  side 2    Res =  0.4752E+01
 MRCHDU: Convergence failed at  57  side 2    Res =  0.1021E+02
 MRCHDU: Convergence failed at  58  side 2    Res =  0.1181E+04
 MRCHDU: Convergence failed at  59  side 2    Res =  0.1123E+02
 MRCHDU: Convergence failed at  60  side 2    Res =  0.6064E+01
 MRCHDU: Convergence failed at  61  side 2    Res =  0.4211E+01
 MRCHDU: Convergence failed at  62  side 2    Res =  0.3123E+01
 MRCHDU: Convergence failed at  63  side 2    Res =  0.2279E+01
 MRCHDU: Convergence failed at  64  side 2    Res =  0.1592E+01
 MRCHDU: Convergence failed at  65  side 2    Res =  0.1325E+01
 MRCHDU: Convergence failed at  66  side 2    Res =  0.1496E+01
 MRCHDU: Convergence failed at  67  side 2    Res =  0.1500E+01
 MRCHDU: Convergence failed at  68  side 2    Res =  0.1523E+01
 MRCHDU: Convergence failed at  69  side 2    Res =  0.1549E+01
 MRCHDU: Convergence failed at  70  side 2    Res =  0.1580E+01
 MRCHDU: Convergence failed at  71  side 2    Res =  0.1610E+01
 MRCHDU: Convergence failed at  72  side 2    Res =  0.1640E+01
 MRCHDU: Convergence failed at  73  side 2    Res =  0.1667E+01
 MRCHDU: Convergence failed at  74  side 2    Res =  0.1698E+01
 MRCHDU: Convergence failed at  75  side 2    Res =  0.1722E+01
 MRCHDU: Convergence failed at  76  side 2    Res =  0.1746E+01
 MRCHDU: Convergence failed at  77  side 2    Res =  0.1771E+01
 MRCHDU: Convergence failed at  78  side 2    Res =  0.1795E+01
 MRCHDU: Convergence failed at  79  side 2    Res =  0.1823E+01
 MRCHDU: Convergence failed at  80  side 2    Res =  0.1854E+01
 MRCHDU: Convergence failed at  81  side 2    Res =  0.1893E+01
 MRCHDU: Convergence failed at  82  side 2    Res =  0.1935E+01
 MRCHDU: Convergence failed at  83  side 2    Res =  0.1986E+01
 MRCHDU: Convergence failed at  84  side 2    Res =  0.1992E+01
 Side 1 forced transition at x/c =  0.9997   78
 Side 2  free  transition at x/c =  0.3875   45

  59   rms: 0.2168E+00   max: -.9702E+00   T at   45  2   RLX: 0.515
       a = -4.000      CL = -0.1316
      Cm = -0.0089     CD =  0.03181   =>   CDf =  0.00661    CDp =  0.02520

 Side 1 forced transition at x/c =  0.9997   78
 Side 2  free  transition at x/c =  0.3938   46

  60   rms: 0.4746E+00   max: -.6703E+01   T at   46  2   RLX: 0.075
       a = -4.000      CL = -0.1287
      Cm = -0.0127     CD =  0.03170   =>   CDf =  0.00967    CDp =  0.02203

 Side 1 forced transition at x/c =  0.9997   78
 Side 2  free  transition at x/c =  0.4060   47

  61   rms: 0.3288E+00   max: 0.4224E+01   T at   47  2   RLX: 0.355
       a = -4.000      CL = -0.1202
      Cm = -0.0199     CD =  0.03875   =>   CDf =  0.00934    CDp =  0.02941

 Side 1 forced transition at x/c =  0.9997   78
 Side 2  free  transition at x/c =  0.3888   45

  62   rms: 0.2092E+00   max: -.1650E+01   T at   45  2   RLX: 0.303
       a = -4.000      CL = -0.1294
      Cm = -0.0218     CD =  0.03504   =>   CDf =  0.00940    CDp =  0.02563

 Side 1 forced transition at x/c =  0.9997   78
 Side 2  free  transition at x/c =  0.3961   46

  63   rms: 0.2249E+00   max: -.2466E+01   T at   46  2   RLX: 0.203
       a = -4.000      CL = -0.1337
      Cm = -0.0230     CD =  0.03282   =>   CDf =  0.00922    CDp =  0.02359

 Side 1 forced transition at x/c =  0.9997   78
 Side 2  free  transition at x/c =  0.4090   47

  64   rms: 0.2529E+00   max: 0.2934E+01   T at   47  2   RLX: 0.511
       a = -4.000      CL = -0.1202
      Cm = -0.0293     CD =  0.03844   =>   CDf =  0.00892    CDp =  0.02951

 MRCHDU: Convergence failed at  52  side 2    Res =  0.1081E+01
 MRCHDU: Convergence failed at  53  side 2    Res =  0.2596E+01
 MRCHDU: Convergence failed at  54  side 2    Res =  0.6951E+01
 MRCHDU: Convergence failed at  55  side 2    Res =  0.1728E+02
 MRCHDU: Convergence failed at  56  side 2    Res =  0.4066E+01
 MRCHDU: Convergence failed at  57  side 2    Res =  0.2299E+01
 MRCHDU: Convergence failed at  58  side 2    Res =  0.1788E+01
 MRCHDU: Convergence failed at  59  side 2    Res =  0.1509E+01
 MRCHDU: Convergence failed at  60  side 2    Res =  0.1624E+01
 MRCHDU: Convergence failed at  61  side 2    Res =  0.1772E+01
 MRCHDU: Convergence failed at  62  side 2    Res =  0.1914E+01
 Side 1 forced transition at x/c =  0.9997   78
 Side 2  free  transition at x/c =  0.3815   45

  65   rms: 0.1639E+00   max: -.1802E+01   T at   45  2   RLX: 0.277
       a = -4.000      CL = -0.1568
      Cm = -0.0197     CD =  0.03492   =>   CDf =  0.00819    CDp =  0.02673

 Side 1 forced transition at x/c =  0.9997   78
 Side 2  free  transition at x/c =  0.3940   46

  66   rms: 0.2097E+00   max: -.2720E+01   T at   46  2   RLX: 0.184
       a = -4.000      CL = -0.1510
      Cm = -0.0226     CD =  0.03453   =>   CDf =  0.00900    CDp =  0.02553

 Side 1 forced transition at x/c =  0.9997   78
 Side 2  free  transition at x/c =  0.4050   46

  67   rms: 0.6251E-01   max: -.3606E+00   D at   46  2
       a = -4.000      CL = -0.1364
      Cm = -0.0282     CD =  0.04221   =>   CDf =  0.00862    CDp =  0.03359

 Side 1 forced transition at x/c =  0.9997   78
 Side 2  free  transition at x/c =  0.4147   47

  68   rms: 0.5703E+00   max: 0.7130E+01   T at   47  2   RLX: 0.210
       a = -4.000      CL = -0.1148
      Cm = -0.0344     CD =  0.03304   =>   CDf =  0.00867    CDp =  0.02438

 MRCHDU: Convergence failed at  50  side 2    Res =  0.1778E+01
 MRCHDU: Convergence failed at  51  side 2    Res =  0.1685E+02
 MRCHDU: Convergence failed at  52  side 2    Res =  0.3243E+01
 MRCHDU: Convergence failed at  53  side 2    Res =  0.2762E+01
 MRCHDU: Convergence failed at  54  side 2    Res =  0.3620E+01
 MRCHDU: Convergence failed at  55  side 2    Res =  0.7515E+01
 MRCHDU: Convergence failed at  56  side 2    Res =  0.3625E+02
 MRCHDU: Convergence failed at  57  side 2    Res =  0.1914E+02
 MRCHDU: Convergence failed at  58  side 2    Res =  0.7775E+01
 MRCHDU: Convergence failed at  59  side 2    Res =  0.5262E+01
 MRCHDU: Convergence failed at  60  side 2    Res =  0.3814E+01
 MRCHDU: Convergence failed at  61  side 2    Res =  0.2951E+01
 MRCHDU: Convergence failed at  62  side 2    Res =  0.2221E+01
 MRCHDU: Convergence failed at  63  side 2    Res =  0.1758E+01
 MRCHDU: Convergence failed at  64  side 2    Res =  0.1207E+01
 Side 1 forced transition at x/c =  0.9997   78
 Side 2  free  transition at x/c =  0.3757   44

  69   rms: 0.3184E+00   max: -.3818E+01   T at   44  2   RLX: 0.131
       a = -4.000      CL = -0.1836
      Cm = -0.0113     CD =  0.03708   =>   CDf =  0.00773    CDp =  0.02935

 Side 1 forced transition at x/c =  0.9997   78
 Side 2  free  transition at x/c =  0.3818   45

  70   rms: 0.2348E+00   max: 0.1526E+01   D at   54  2   RLX: 0.983
       a = -4.000      CL = -0.1178
      Cm = -0.0359     CD =  0.03680   =>   CDf =  0.01009    CDp =  0.02671

 MRCHDU: Convergence failed at  53  side 2    Res =  0.7729E+01
 MRCHDU: Convergence failed at  54  side 2    Res =  0.2711E+01
 MRCHDU: Convergence failed at  55  side 2    Res =  0.2577E+01
 MRCHDU: Convergence failed at  56  side 2    Res =  0.4565E+01
 MRCHDU: Convergence failed at  57  side 2    Res =  0.1089E+02
 MRCHDU: Convergence failed at  58  side 2    Res =  0.4895E+02
 MRCHDU: Convergence failed at  59  side 2    Res =  0.7921E+01
 MRCHDU: Convergence failed at  60  side 2    Res =  0.4668E+01
 MRCHDU: Convergence failed at  61  side 2    Res =  0.3260E+01
 MRCHDU: Convergence failed at  62  side 2    Res =  0.2564E+01
 MRCHDU: Convergence failed at  63  side 2    Res =  0.2372E+01
 Side 1 forced transition at x/c =  0.9997   78
 Side 2  free  transition at x/c =  0.3736   44

  71   rms: 0.1100E+00   max: -.1391E+01   T at   44  2   RLX: 0.359
       a = -4.000      CL = -0.1517
      Cm = -0.0237     CD =  0.03842   =>   CDf =  0.00800    CDp =  0.03043

 Side 1 forced transition at x/c =  0.9997   78
 Side 2  free  transition at x/c =  0.3818   45

  72   rms: 0.4370E+00   max: -.5132E+01   T at   45  2   RLX: 0.097
       a = -4.000      CL = -0.1535
      Cm = -0.0239     CD =  0.03360   =>   CDf =  0.00908    CDp =  0.02452

 Side 1 forced transition at x/c =  0.9997   78
 Side 2  free  transition at x/c =  0.3982   46

  73   rms: 0.2842E+00   max: -.3751E+01   T at   46  2   RLX: 0.133
       a = -4.000      CL = -0.1577
      Cm = -0.0231     CD =  0.03509   =>   CDf =  0.00870    CDp =  0.02639

 Side 1 forced transition at x/c =  0.9997   78
 Side 2  free  transition at x/c =  0.4154   47

  74   rms: 0.1689E+00   max: -.2188E+01   T at   47  2   RLX: 0.229
       a = -4.000      CL = -0.1609
      Cm = -0.0225     CD =  0.03583   =>   CDf =  0.00845    CDp =  0.02738

 Side 1 forced transition at x/c =  0.9997   78
 Side 2  free  transition at x/c =  0.4393   49

  75   rms: 0.1684E+00   max: 0.1933E+01   T at   49  2   RLX: 0.776
       a = -4.000      CL = -0.1338
      Cm = -0.0298     CD =  0.04053   =>   CDf =  0.00832    CDp =  0.03222

 MRCHDU: Convergence failed at  55  side 2    Res =  0.1696E+01
 MRCHDU: Convergence failed at  56  side 2    Res =  0.5419E+01
 MRCHDU: Convergence failed at  57  side 2    Res =  0.8507E+01
 MRCHDU: Convergence failed at  58  side 2    Res =  0.3139E+01
 MRCHDU: Convergence failed at  59  side 2    Res =  0.1932E+01
 MRCHDU: Convergence failed at  60  side 2    Res =  0.1524E+01
 MRCHDU: Convergence failed at  61  side 2    Res =  0.1625E+01
 MRCHDU: Convergence failed at  62  side 2    Res =  0.1922E+01
 MRCHDU: Convergence failed at  63  side 2    Res =  0.2267E+01
 Side 1 forced transition at x/c =  0.9997   78
 Side 2  free  transition at x/c =  0.4049   46

  76   rms: 0.1829E+00   max: -.2634E+01   T at   46  2   RLX: 0.190
       a = -4.000      CL = -0.1626
      Cm = -0.0195     CD =  0.03888   =>   CDf =  0.00770    CDp =  0.03117

 Side 1 forced transition at x/c =  0.9997   78
 Side 2  free  transition at x/c =  0.4057   46

  77   rms: 0.8656E-01   max: -.4955E+00   D at   48  2
       a = -4.000      CL = -0.1373
      Cm = -0.0270     CD =  0.04408   =>   CDf =  0.00855    CDp =  0.03553

 Side 1 forced transition at x/c =  0.9997   78
 Side 2  free  transition at x/c =  0.4237   48

  78   rms: 0.2508E+00   max: 0.1813E+01   T at   48  2   RLX: 0.827
       a = -4.000      CL = -0.1263
      Cm = -0.0312     CD =  0.04170   =>   CDf =  0.00885    CDp =  0.03285

 MRCHDU: Convergence failed at  51  side 2    Res =  0.5699E+01
 MRCHDU: Convergence failed at  52  side 2    Res =  0.2015E+01
 MRCHDU: Convergence failed at  53  side 2    Res =  0.3431E+01
 MRCHDU: Convergence failed at  54  side 2    Res =  0.1243E+02
 MRCHDU: Convergence failed at  55  side 2    Res =  0.1621E+02
 MRCHDU: Convergence failed at  56  side 2    Res =  0.6421E+01
 MRCHDU: Convergence failed at  57  side 2    Res =  0.4200E+01
 MRCHDU: Convergence failed at  58  side 2    Res =  0.3277E+01
 MRCHDU: Convergence failed at  59  side 2    Res =  0.2857E+01
 MRCHDU: Convergence failed at  60  side 2    Res =  0.2482E+01
 MRCHDU: Convergence failed at  61  side 2    Res =  0.2744E+01
 MRCHDU: Convergence failed at  62  side 2    Res =  0.2998E+01
 MRCHDU: Convergence failed at  63  side 2    Res =  0.3148E+01
 MRCHDU: Convergence failed at  64  side 2    Res =  0.2803E+01
 MRCHDU: Convergence failed at  65  side 2    Res =  0.2477E+01
 MRCHDU: Convergence failed at  66  side 2    Res =  0.3328E+01
 MRCHDU: Convergence failed at  67  side 2    Res =  0.4676E+01
 MRCHDU: Convergence failed at  68  side 2    Res =  0.6685E+01
 MRCHDU: Convergence failed at  69  side 2    Res =  0.1084E+02
 MRCHDU: Convergence failed at  70  side 2    Res =  0.2126E+02
 MRCHDU: Convergence failed at  71  side 2    Res =  0.3696E+03
 MRCHDU: Convergence failed at  72  side 2    Res =  0.2725E+02
 MRCHDU: Convergence failed at  73  side 2    Res =  0.1416E+02
 MRCHDU: Convergence failed at  74  side 2    Res =  0.9941E+01
 MRCHDU: Convergence failed at  75  side 2    Res =  0.7863E+01
 MRCHDU: Convergence failed at  76  side 2    Res =  0.6644E+01
 MRCHDU: Convergence failed at  77  side 2    Res =  0.6153E+01
 MRCHDU: Convergence failed at  78  side 2    Res =  0.5551E+01
 MRCHDU: Convergence failed at  79  side 2    Res =  0.5184E+01
 MRCHDU: Convergence failed at  80  side 2    Res =  0.4863E+01
 MRCHDU: Convergence failed at  81  side 2    Res =  0.4692E+01
 MRCHDU: Convergence failed at  82  side 2    Res =  0.4607E+01
 MRCHDU: Convergence failed at  83  side 2    Res =  0.4654E+01
 MRCHDU: Convergence failed at  84  side 2    Res =  0.5190E+01
 Side 1 forced transition at x/c =  0.9997   78
 Side 2  free  transition at x/c =  0.3901   45

  79   rms: 0.2454E+00   max: -.1556E+01   T at   45  2   RLX: 0.321
       a = -4.000      CL = -0.1669
      Cm =  0.0040     CD =  0.03164   =>   CDf =  0.00653    CDp =  0.02511

 Side 1 forced transition at x/c =  0.9997   78
 Side 2  free  transition at x/c =  0.3938   46

  80   rms: 0.1192E+01   max: -.1511E+02   T at   46  2   RLX: 0.033
       a = -4.000      CL = -0.1606
      Cm = -0.0003     CD =  0.02962   =>   CDf =  0.01004    CDp =  0.01958

 Side 1 forced transition at x/c =  0.9997   78
 Side 2  free  transition at x/c =  0.4010   46

  81   rms: 0.2410E+00   max: -.3969E+01   T at   46  2   RLX: 0.126
       a = -4.000      CL = -0.1582
      Cm = -0.0040     CD =  0.03385   =>   CDf =  0.00964    CDp =  0.02421

 Side 1 forced transition at x/c =  0.9997   78
 Side 2  free  transition at x/c =  0.3991   46

  82   rms: 0.1321E+00   max: -.7675E+00   T at   46  2   RLX: 0.651
       a = -4.000      CL = -0.1491
      Cm = -0.0190     CD =  0.03885   =>   CDf =  0.00925    CDp =  0.02960

 Side 1 forced transition at x/c =  0.9997   78
 Side 2  free  transition at x/c =  0.4026   46

  83   rms: 0.4446E-01   max: -.5851E+00   D at   46  2   RLX: 0.855
       a = -4.000      CL = -0.1431
      Cm = -0.0251     CD =  0.04226   =>   CDf =  0.00835    CDp =  0.03391

 Side 1 forced transition at x/c =  0.9997   78
 Side 2  free  transition at x/c =  0.4336   48

  84   rms: 0.1623E+00   max: 0.9149E+00   D at   49  2   RLX: 0.785
       a = -4.000      CL = -0.1446
      Cm = -0.0269     CD =  0.03998   =>   CDf =  0.00876    CDp =  0.03122

 Side 1 forced transition at x/c =  0.9997   78
 Side 2  free  transition at x/c =  0.4321   48

  85   rms: 0.5551E-01   max: -.4211E+00   D at   48  2
       a = -4.000      CL = -0.1491
      Cm = -0.0250     CD =  0.04210   =>   CDf =  0.00819    CDp =  0.03392

 Side 1 forced transition at x/c =  0.9997   78
 Side 2  free  transition at x/c =  0.4487   50

  86   rms: 0.2303E+00   max: 0.1756E+01   T at   50  2   RLX: 0.854
       a = -4.000      CL = -0.1385
      Cm = -0.0264     CD =  0.04591   =>   CDf =  0.00840    CDp =  0.03751

 MRCHDU: Convergence failed at  55  side 2    Res =  0.1458E+01
 MRCHDU: Convergence failed at  56  side 2    Res =  0.1240E+01
 MRCHDU: Convergence failed at  57  side 2    Res =  0.1819E+01
 MRCHDU: Convergence failed at  58  side 2    Res =  0.2739E+01
 MRCHDU: Convergence failed at  59  side 2    Res =  0.5603E+01
 MRCHDU: Convergence failed at  60  side 2    Res =  0.1192E+03
 MRCHDU: Convergence failed at  61  side 2    Res =  0.7034E+01
 MRCHDU: Convergence failed at  62  side 2    Res =  0.3659E+01
 Side 1 forced transition at x/c =  0.9997   78
 Side 2  free  transition at x/c =  0.4249   48

  87   rms: 0.1653E+00   max: -.1850E+01   T at   48  2   RLX: 0.270
       a = -4.000      CL = -0.1652
      Cm = -0.0188     CD =  0.03461   =>   CDf =  0.00793    CDp =  0.02668

 Side 1 forced transition at x/c =  0.9997   78
 Side 2  free  transition at x/c =  0.4371   49

  88   rms: 0.1851E+00   max: -.2469E+01   T at   49  2   RLX: 0.202
       a = -4.000      CL = -0.1613
      Cm = -0.0211     CD =  0.03429   =>   CDf =  0.00851    CDp =  0.02579

 Side 1 forced transition at x/c =  0.9997   78
 Side 2  free  transition at x/c =  0.4470   49

  89   rms: 0.5321E-01   max: -.3700E+00   D at   49  2
       a = -4.000      CL = -0.1523
      Cm = -0.0243     CD =  0.04193   =>   CDf =  0.00818    CDp =  0.03374

 Side 1 forced transition at x/c =  0.9997   78
 Side 2  free  transition at x/c =  0.4561   50

  90   rms: 0.3013E+00   max: 0.3923E+01   T at   50  2   RLX: 0.382
       a = -4.000      CL = -0.1334
      Cm = -0.0299     CD =  0.03568   =>   CDf =  0.00828    CDp =  0.02740

 MRCHDU: Convergence failed at  54  side 2    Res =  0.1495E+01
 MRCHDU: Convergence failed at  55  side 2    Res =  0.1488E+05
 MRCHDU: Convergence failed at  56  side 2    Res =  0.4627E+01
 MRCHDU: Convergence failed at  57  side 2    Res =  0.2714E+01
 MRCHDU: Convergence failed at  58  side 2    Res =  0.2197E+01
 MRCHDU: Convergence failed at  59  side 2    Res =  0.2719E+01
 MRCHDU: Convergence failed at  60  side 2    Res =  0.4013E+01
 MRCHDU: Convergence failed at  61  side 2    Res =  0.7389E+01
 MRCHDU: Convergence failed at  62  side 2    Res =  0.9789E+02
 MRCHDU: Convergence failed at  63  side 2    Res =  0.8833E+01
 MRCHDU: Convergence failed at  64  side 2    Res =  0.3826E+01
 Side 1 forced transition at x/c =  0.9997   78
 Side 2  free  transition at x/c =  0.4143   47

  91   rms: 0.1590E+00   max: -.2302E+01   T at   47  2   RLX: 0.217
       a = -4.000      CL = -0.1762
      Cm = -0.0152     CD =  0.03709   =>   CDf =  0.00752    CDp =  0.02957

 Side 1 forced transition at x/c =  0.9997   78
 Side 2  free  transition at x/c =  0.4251   48

  92   rms: 0.1723E+00   max: -.1702E+01   T at   48  2   RLX: 0.294
       a = -4.000      CL = -0.1651
      Cm = -0.0198     CD =  0.03573   =>   CDf =  0.00871    CDp =  0.02702

 Side 1 forced transition at x/c =  0.9997   78
 Side 2  free  transition at x/c =  0.4368   49

  93   rms: 0.2487E+00   max: -.4209E+01   T at   49  2   RLX: 0.119
       a = -4.000      CL = -0.1662
      Cm = -0.0201     CD =  0.03510   =>   CDf =  0.00841    CDp =  0.02669

 Side 1 forced transition at x/c =  0.9997   78
 Side 2  free  transition at x/c =  0.4476   49

  94   rms: 0.4459E-01   max: -.3240E+00   D at   49  2
       a = -4.000      CL = -0.1512
      Cm = -0.0245     CD =  0.04212   =>   CDf =  0.00816    CDp =  0.03395

 Side 1 forced transition at x/c =  0.9997   78
 Side 2  free  transition at x/c =  0.4553   50

  95   rms: 0.2486E+00   max: 0.3024E+01   T at   50  2   RLX: 0.496
       a = -4.000      CL = -0.1338
      Cm = -0.0298     CD =  0.03686   =>   CDf =  0.00830    CDp =  0.02855

 MRCHDU: Convergence failed at  54  side 2    Res =  0.1323E+01
 MRCHDU: Convergence failed at  55  side 2    Res =  0.7877E+01
 MRCHDU: Convergence failed at  56  side 2    Res =  0.9734E+01
 MRCHDU: Convergence failed at  57  side 2    Res =  0.3501E+01
 MRCHDU: Convergence failed at  58  side 2    Res =  0.2481E+01
 MRCHDU: Convergence failed at  59  side 2    Res =  0.2180E+01
 MRCHDU: Convergence failed at  60  side 2    Res =  0.2966E+01
 MRCHDU: Convergence failed at  61  side 2    Res =  0.4267E+01
 MRCHDU: Convergence failed at  62  side 2    Res =  0.7523E+01
 MRCHDU: Convergence failed at  63  side 2    Res =  0.4902E+02
 MRCHDU: Convergence failed at  64  side 2    Res =  0.9880E+01
 Side 1 forced transition at x/c =  0.9997   78
 Side 2  free  transition at x/c =  0.4145   47

  96   rms: 0.1590E+00   max: -.2354E+01   T at   47  2   RLX: 0.212
       a = -4.000      CL = -0.1769
      Cm = -0.0150     CD =  0.03721   =>   CDf =  0.00750    CDp =  0.02971

 Side 1 forced transition at x/c =  0.9997   78
 Side 2  free  transition at x/c =  0.4251   48

  97   rms: 0.1748E+00   max: -.1829E+01   T at   48  2   RLX: 0.273
       a = -4.000      CL = -0.1659
      Cm = -0.0195     CD =  0.03578   =>   CDf =  0.00869    CDp =  0.02708

 Side 1 forced transition at x/c =  0.9997   78
 Side 2  free  transition at x/c =  0.4369   49

  98   rms: 0.2449E+00   max: -.4131E+01   T at   49  2   RLX: 0.121
       a = -4.000      CL = -0.1667
      Cm = -0.0199     CD =  0.03512   =>   CDf =  0.00841    CDp =  0.02671

 Side 1 forced transition at x/c =  0.9997   78
 Side 2  free  transition at x/c =  0.4475   49

  99   rms: 0.4615E-01   max: -.3296E+00   D at   49  2
       a = -4.000      CL = -0.1513
      Cm = -0.0244     CD =  0.04213   =>   CDf =  0.00817    CDp =  0.03396

 Side 1 forced transition at x/c =  0.9997   78
 Side 2  free  transition at x/c =  0.4555   50

 100   rms: 0.2580E+00   max: 0.3174E+01   T at   50  2   RLX: 0.473
[...]
       a = -6.000      CL = -0.3122
      Cm = -0.0181     CD =  0.06344   =>   CDf =  0.00715    CDp =  0.05629

 Side 1 forced transition at x/c =  0.9997   76
 Side 2  free  transition at x/c =  0.3308   43

  88   rms: 0.1314E+00   max: -.1653E+01   T at   43  2   RLX: 0.302
       a = -6.000      CL = -0.3058
      Cm = -0.0215     CD =  0.05854   =>   CDf =  0.00711    CDp =  0.05143

 Side 1 forced transition at x/c =  0.9997   76
 Side 2  free  transition at x/c =  0.3273   43

  89   rms: 0.8305E-01   max: -.4623E+00   D at   43  2
       a = -6.000      CL = -0.3141
      Cm = -0.0150     CD =  0.06270   =>   CDf =  0.00710    CDp =  0.05560

 Side 1 forced transition at x/c =  0.9997   76
 Side 2  free  transition at x/c =  0.3159   42

  90   rms: 0.6490E-01   max: -.7246E+00   T at   42  2   RLX: 0.690
       a = -6.000      CL = -0.3118
      Cm = -0.0177     CD =  0.06261   =>   CDf =  0.00678    CDp =  0.05583

 Side 1 forced transition at x/c =  0.9997   76
 Side 2  free  transition at x/c =  0.3134   42

  91   rms: 0.2540E-01   max: -.4588E+00   D at   42  2
       a = -6.000      CL = -0.3109
      Cm = -0.0172     CD =  0.06175   =>   CDf =  0.00691    CDp =  0.05484

 Side 1 forced transition at x/c =  0.9997   76
 Side 2  free  transition at x/c =  0.3323   43

  92   rms: 0.7802E-01   max: -.6639E+00   T at   43  2   RLX: 0.753
       a = -6.000      CL = -0.3038
      Cm = -0.0229     CD =  0.06248   =>   CDf =  0.00713    CDp =  0.05535

 Side 1 forced transition at x/c =  0.9997   76
 Side 2  free  transition at x/c =  0.3287   43

  93   rms: 0.9093E-01   max: -.4365E+00   D at   43  2
       a = -6.000      CL = -0.3141
      Cm = -0.0157     CD =  0.06343   =>   CDf =  0.00717    CDp =  0.05626

 Side 1 forced transition at x/c =  0.9997   76
 Side 2  free  transition at x/c =  0.3170   42

  94   rms: 0.2119E+00   max: -.2273E+01   T at   42  2   RLX: 0.220
       a = -6.000      CL = -0.3130
      Cm = -0.0184     CD =  0.06410   =>   CDf =  0.00680    CDp =  0.05730

 Side 1 forced transition at x/c =  0.9997   76
 Side 2  free  transition at x/c =  0.3134   42

  95   rms: 0.3836E-01   max: -.4739E+00   D at   42  2
       a = -6.000      CL = -0.3073
      Cm = -0.0170     CD =  0.06238   =>   CDf =  0.00695    CDp =  0.05543

 Side 1 forced transition at x/c =  0.9997   76
 Side 2  free  transition at x/c =  0.3359   44

  96   rms: 0.1219E+00   max: 0.6811E+00   D at   44  2
       a = -6.000      CL = -0.3152
      Cm = -0.0180     CD =  0.06312   =>   CDf =  0.00732    CDp =  0.05580

 Side 1 forced transition at x/c =  0.9997   76
 Side 2  free  transition at x/c =  0.3239   43

  97   rms: 0.4710E-01   max: 0.5459E+00   T at   43  2
       a = -6.000      CL = -0.3182
      Cm = -0.0138     CD =  0.06086   =>   CDf =  0.00691    CDp =  0.05395

 Side 1 forced transition at x/c =  0.9997   76
 Side 2  free  transition at x/c =  0.3143   42

  98   rms: 0.4397E-01   max: -.4322E+00   T at   42  2
       a = -6.000      CL = -0.3152
      Cm = -0.0171     CD =  0.06083   =>   CDf =  0.00676    CDp =  0.05407

 Side 1 forced transition at x/c =  0.9997   76
 Side 2  free  transition at x/c =  0.3147   42

  99   rms: 0.2500E-01   max: -.3441E+00   D at   42  2
       a = -6.000      CL = -0.3109
      Cm = -0.0184     CD =  0.06150   =>   CDf =  0.00689    CDp =  0.05461

 Side 1 forced transition at x/c =  0.9997   76
 Side 2  free  transition at x/c =  0.3370   44

 100   rms: 0.1454E+00   max: 0.8351E+00   D at   44  2
       a = -6.000      CL = -0.3158
      Cm = -0.0176     CD =  0.06350   =>   CDf =  0.00733    CDp =  0.05616

 Side 1 forced transition at x/c =  0.9997   76
 Side 2  free  transition at x/c =  0.3205   43

 101   rms: 0.2923E-01   max: -.4164E+00   D at   43  2
       a = -6.000      CL = -0.3162
      Cm = -0.0150     CD =  0.06072   =>   CDf =  0.00684    CDp =  0.05388

 Side 1 forced transition at x/c =  0.9997   76
 Side 2  free  transition at x/c =  0.3191   43

 102   rms: 0.1336E-01   max: -.8337E-01   D at   43  2
       a = -6.000      CL = -0.3183
      Cm = -0.0155     CD =  0.06028   =>   CDf =  0.00686    CDp =  0.05343

 Side 1 forced transition at x/c =  0.9997   76
 Side 2  free  transition at x/c =  0.3195   43

 103   rms: 0.6758E-03   max: -.5261E-02   T at   43  2
       a = -6.000      CL = -0.3182
      Cm = -0.0155     CD =  0.06047   =>   CDf =  0.00688    CDp =  0.05359

 Side 1 forced transition at x/c =  0.9997   76
 Side 2  free  transition at x/c =  0.3196   43

 104   rms: 0.3117E-04   max: -.2832E-03   T at   43  2
       a = -6.000      CL = -0.3182
      Cm = -0.0155     CD =  0.06047   =>   CDf =  0.00688    CDp =  0.05359
 plradd ia,ip,cpol            8          75  7.27521395E-03

 Point added to stored polar  1
 Save file unspecified or not available
 Dump file unspecified or not available

.OPERva   c>  
.OPERva   c>  
.OPERva   c>   Calculating wake trajectory ...
 Calculating source influence matrix ...

 Solving BL system ...

 Side 1 forced transition at x/c =  0.9997   76
 Side 2  free  transition at x/c =  0.3196   43

   1   rms: 0.3858E+00   max: 0.4078E+01   T at   43  2   RLX: 0.368
       a = -7.000      CL = -0.3135
      Cm = -0.0289     CD =  0.06820   =>   CDf =  0.00689    CDp =  0.06131

 Side 1 forced transition at x/c =  0.9997   76
 Side 2  free  transition at x/c =  0.3119   42

   2   rms: 0.1196E+01   max: 0.2019E+02   T at   42  2   RLX: 0.066
       a = -7.000      CL = -0.3277
      Cm = -0.0215     CD =  0.05286   =>   CDf =  0.00744    CDp =  0.04542

 Side 1 forced transition at x/c =  0.9997   76
 Side 2  free  transition at x/c =  0.2858   40

   3   rms: 0.4655E+00   max: 0.6494E+01   T at   40  2   RLX: 0.159
       a = -7.000      CL = -0.3479
      Cm = -0.0116     CD =  0.06394   =>   CDf =  0.00691    CDp =  0.05703

 Side 1 forced transition at x/c =  0.9997   76
 Side 2  free  transition at x/c =  0.2583   39

   4   rms: 0.2235E+00   max: 0.3131E+01   T at   39  2   RLX: 0.479
       a = -7.000      CL = -0.3742
      Cm = -0.0108     CD =  0.07862   =>   CDf =  0.00658    CDp =  0.07203

 Side 1 forced transition at x/c =  0.9997   76
 Side 2  free  transition at x/c =  0.2465   38

   5   rms: 0.5961E-01   max: 0.9356E+00   T at   38  2
       a = -7.000      CL = -0.3474
      Cm = -0.0183     CD =  0.07276   =>   CDf =  0.00680    CDp =  0.06596

 Side 1 forced transition at x/c =  0.9997   76
 Side 2  free  transition at x/c =  0.2358   37

   6   rms: 0.1699E-01   max: -.2975E+00   D at   37  2
       a = -7.000      CL = -0.3534
      Cm = -0.0171     CD =  0.07214   =>   CDf =  0.00690    CDp =  0.06524

 Side 1 forced transition at x/c =  0.9997   76
 Side 2  free  transition at x/c =  0.2347   37

   7   rms: 0.5049E-02   max: -.9084E-01   D at   37  2
       a = -7.000      CL = -0.3528
      Cm = -0.0167     CD =  0.07199   =>   CDf =  0.00689    CDp =  0.06511

 Side 1 forced transition at x/c =  0.9997   76
 Side 2  free  transition at x/c =  0.2350   37

   8   rms: 0.2229E-03   max: -.3406E-02   D at   37  2
       a = -7.000      CL = -0.3529
      Cm = -0.0167     CD =  0.07194   =>   CDf =  0.00689    CDp =  0.06505

 Side 1 forced transition at x/c =  0.9997   76
 Side 2  free  transition at x/c =  0.2350   37

   9   rms: 0.1019E-04   max: -.1433E-03   T at   37  2
       a = -7.000      CL = -0.3529
      Cm = -0.0167     CD =  0.07194   =>   CDf =  0.00689    CDp =  0.06505
 plradd ia,ip,cpol            9          75  7.27521395E-03

 Point added to stored polar  1
 Save file unspecified or not available
 Dump file unspecified or not available

.OPERva   c>  
.OPERva   c>  
.OPERva   c>   Calculating wake trajectory ...
 Calculating source influence matrix ...

 Solving BL system ...

 Side 1 forced transition at x/c =  0.9997   76
 Side 2  free  transition at x/c =  0.2350   37

   1   rms: 0.1919E+00   max: 0.3909E+01   T at   37  2   RLX: 0.384
       a = -8.000      CL = -0.3672
      Cm = -0.0156     CD =  0.07625   =>   CDf =  0.00689    CDp =  0.06936

 Side 1 forced transition at x/c =  0.9997   76
 Side 2  free  transition at x/c =  0.2223   36
 idif Ue xi dudx           1  0.16756979      3.49485874E-03   47.947514    
 Uenew xinew           2  2.78416090E-02  5.80668449E-04

   2   rms: 0.5926E-01   max: 0.6201E+00   T at   36  2
       a = -8.000      CL = -0.3793
      Cm = -0.0126     CD =  0.08426   =>   CDf =  0.00687    CDp =  0.07739

 Side 1 forced transition at x/c =  0.9997   75
 Side 2  free  transition at x/c =  0.2088   36

   3   rms: 0.5710E-01   max: -.3221E+00   D at   37  2
       a = -8.000      CL = -0.3726
      Cm = -0.0157     CD =  0.08544   =>   CDf =  0.00702    CDp =  0.07841

 Side 1 forced transition at x/c =  0.9997   75
 Side 2  free  transition at x/c =  0.2112   36

   4   rms: 0.4007E-01   max: -.1480E+00   D at   66  2
       a = -8.000      CL = -0.3823
      Cm = -0.0207     CD =  0.08567   =>   CDf =  0.00707    CDp =  0.07860

 Side 1 forced transition at x/c =  0.9997   75
 Side 2  free  transition at x/c =  0.2112   36

   5   rms: 0.9406E-02   max: 0.4494E-01   D at   86  2
       a = -8.000      CL = -0.3871
      Cm = -0.0195     CD =  0.08699   =>   CDf =  0.00711    CDp =  0.07988

 Side 1 forced transition at x/c =  0.9997   75
 Side 2  free  transition at x/c =  0.2111   36

   6   rms: 0.1796E-02   max: -.7166E-02   T at   36  2
       a = -8.000      CL = -0.3863
      Cm = -0.0196     CD =  0.08685   =>   CDf =  0.00705    CDp =  0.07980

 Side 1 forced transition at x/c =  0.9997   75
 Side 2  free  transition at x/c =  0.2111   36

   7   rms: 0.1352E-03   max: -.5260E-03   D at   83  2
       a = -8.000      CL = -0.3863
      Cm = -0.0197     CD =  0.08683   =>   CDf =  0.00706    CDp =  0.07977

 Side 1 forced transition at x/c =  0.9997   75
 Side 2  free  transition at x/c =  0.2111   36

   8   rms: 0.1002E-04   max: 0.4711E-04   D at   87  2
       a = -8.000      CL = -0.3863
      Cm = -0.0197     CD =  0.08683   =>   CDf =  0.00706    CDp =  0.07977
 plradd ia,ip,cpol           10          74  5.15398290E-03

 Point added to stored polar  1
 Save file unspecified or not available
 Dump file unspecified or not available

.OPERva   c>  
.OPERva   c>  
.OPERva   c>   Calculating wake trajectory ...
 Calculating source influence matrix ...

 Solving BL system ...

 Side 1 forced transition at x/c =  0.9997   75
 Side 2  free  transition at x/c =  0.2111   36

   1   rms: 0.2583E+00   max: -.9804E+00   T at   37  2   RLX: 0.510
       a = -9.000      CL = -0.3952
      Cm = -0.0049     CD =  0.09165   =>   CDf =  0.00706    CDp =  0.08458

 Side 1 forced transition at x/c =  0.9997   75
 Side 2  free  transition at x/c =  0.1971   36

   2   rms: 0.1228E+00   max: -.5285E+00   T at   36  2   RLX: 0.946
       a = -9.000      CL = -0.3156
      Cm = -0.0109     CD =  0.08967   =>   CDf =  0.00714    CDp =  0.08253

 Side 1 forced transition at x/c =  0.9997   75
 Side 2  free  transition at x/c =  0.2013   36

   3   rms: 0.8532E-01   max: 0.3839E+00   T at   36  2
       a = -9.000      CL = -0.3587
      Cm = -0.0138     CD =  0.09114   =>   CDf =  0.00753    CDp =  0.08361

 Side 1 forced transition at x/c =  0.9997   75
 Side 2  free  transition at x/c =  0.1977   36

   4   rms: 0.1281E+00   max: 0.7561E+00   T at   36  2
       a = -9.000      CL = -0.4411
      Cm = -0.0157     CD =  0.10049   =>   CDf =  0.00740    CDp =  0.09309

 Side 1 forced transition at x/c =  0.9997   75
 Side 2  free  transition at x/c =  0.1972   36

   5   rms: 0.1213E+00   max: 0.5290E+00   D at   36  2
       a = -9.000      CL = -0.4246
      Cm = -0.0176     CD =  0.10550   =>   CDf =  0.00729    CDp =  0.09820

 Side 1 forced transition at x/c =  0.9997   75
 Side 2  free  transition at x/c =  0.1959   35

   6   rms: 0.2892E-01   max: 0.9654E-01   D at  101  2
       a = -9.000      CL = -0.4175
      Cm = -0.0177     CD =  0.10202   =>   CDf =  0.00717    CDp =  0.09484

 Side 1 forced transition at x/c =  0.9997   75
 Side 2  free  transition at x/c =  0.1976   36

   7   rms: 0.9169E-01   max: 0.3433E+00   D at   87  2
       a = -9.000      CL = -0.4290
      Cm = -0.0155     CD =  0.10352   =>   CDf =  0.00724    CDp =  0.09628

 Side 1 forced transition at x/c =  0.9997   75
 Side 2  free  transition at x/c =  0.1959   35

   8   rms: 0.1925E-01   max: 0.5844E-01   D at  101  2
       a = -9.000      CL = -0.4161
      Cm = -0.0179     CD =  0.10150   =>   CDf =  0.00714    CDp =  0.09436

 Side 1 forced transition at x/c =  0.9997   75
 Side 2  free  transition at x/c =  0.1962   36

   9   rms: 0.1265E-01   max: -.4456E-01   T at   36  2
       a = -9.000      CL = -0.4137
      Cm = -0.0167     CD =  0.10060   =>   CDf =  0.00718    CDp =  0.09342

 Side 1 forced transition at x/c =  0.9997   75
 Side 2  free  transition at x/c =  0.1963   36

  10   rms: 0.2946E-02   max: -.1399E-01   T at   36  2
       a = -9.000      CL = -0.4119
      Cm = -0.0167     CD =  0.10002   =>   CDf =  0.00717    CDp =  0.09285

 Side 1 forced transition at x/c =  0.9997   75
 Side 2  free  transition at x/c =  0.1964   36

  11   rms: 0.3470E-03   max: 0.1263E-02   T at   36  2
       a = -9.000      CL = -0.4121
      Cm = -0.0167     CD =  0.10001   =>   CDf =  0.00718    CDp =  0.09283

 Side 1 forced transition at x/c =  0.9997   75
 Side 2  free  transition at x/c =  0.1964   36

  12   rms: 0.1699E-04   max: 0.9276E-04   C at   75  1
       a = -9.000      CL = -0.4121
      Cm = -0.0167     CD =  0.10002   =>   CDf =  0.00718    CDp =  0.09284
 plradd ia,ip,cpol           11          74  5.15398290E-03

 Point added to stored polar  1
 Save file unspecified or not available
 Dump file unspecified or not available

.OPERva   c>  
.OPERva   c>  
.OPERva   c>   Calculating wake trajectory ...
 Calculating source influence matrix ...

 Solving BL system ...

 Side 1 forced transition at x/c =  0.9997   75
 Side 2  free  transition at x/c =  0.1964   36
 idif Ue xi dudx           1  0.23487608      6.23893738E-03   37.646809    
 Uenew xinew           2  0.11059856      2.93779373E-03

   1   rms: 0.2792E+00   max: 0.1614E+01   T at   36  2   RLX: 0.930
       a =-10.000      CL = -0.4945
      Cm = -0.0347     CD =  0.12969   =>   CDf =  0.00715    CDp =  0.12254

 Side 1 forced transition at x/c =  0.9997   74
 Side 2  free  transition at x/c =  0.1927   36

   2   rms: 0.7173E+00   max: 0.2368E+01   D at   59  2   RLX: 0.633
       a =-10.000      CL = -0.4783
      Cm = -0.0098     CD =  0.11689   =>   CDf =  0.00759    CDp =  0.10930

 Side 1 forced transition at x/c =  0.9997   74
 Side 2  free  transition at x/c =  0.1804   35

   3   rms: 0.2051E+00   max: 0.1017E+01   D at   68  2
       a =-10.000      CL = -0.4577
      Cm = -0.0177     CD =  0.12194   =>   CDf =  0.00754    CDp =  0.11440

 Side 1 forced transition at x/c =  0.9997   74
 Side 2  free  transition at x/c =  0.1806   35

   4   rms: 0.7911E-01   max: 0.2666E+00   D at   67  2
       a =-10.000      CL = -0.4438
      Cm = -0.0168     CD =  0.11888   =>   CDf =  0.00726    CDp =  0.11162

 Side 1 forced transition at x/c =  0.9997   74
 Side 2  free  transition at x/c =  0.1922   36

   5   rms: 0.4595E+00   max: 0.1941E+01   D at   36  2   RLX: 0.773
       a =-10.000      CL = -0.5413
      Cm = -0.0020     CD =  0.11640   =>   CDf =  0.00783    CDp =  0.10858

 MRCHDU: Convergence failed at  81  side 2    Res =  0.2116E+01
 MRCHDU: Convergence failed at  82  side 2    Res =  0.5877E+01
 MRCHDU: Convergence failed at  83  side 2    Res =  0.1337E+02
 MRCHDU: Convergence failed at  84  side 2    Res =  0.2537E+03
 MRCHDU: Convergence failed at  85  side 2    Res =  0.1762E+02
 MRCHDU: Convergence failed at  86  side 2    Res =  0.9520E+01
 MRCHDU: Convergence failed at  87  side 2    Res =  0.6748E+01
 MRCHDU: Convergence failed at  88  side 2    Res =  0.5731E+01
 Side 1 forced transition at x/c =  0.9997   74
 Side 2  free  transition at x/c =  0.1770   35

   6   rms: 0.1577E+00   max: 0.6342E+00   D at   99  2   RLX: 0.865
       a =-10.000      CL = -0.4570
      Cm = -0.0043     CD =  0.10737   =>   CDf =  0.00701    CDp =  0.10035

 Side 1 forced transition at x/c =  0.9997   74
 Side 2  free  transition at x/c =  0.1784   35

   7   rms: 0.5805E-01   max: -.4008E+00   D at   35  2
       a =-10.000      CL = -0.4043
      Cm = -0.0124     CD =  0.11287   =>   CDf =  0.00755    CDp =  0.10532

 Side 1 forced transition at x/c =  0.9997   75
 Side 2  free  transition at x/c =  0.1915   35

   8   rms: 0.1232E+00   max: 0.1156E+01   D at   35  2
       a =-10.000      CL = -0.4140
      Cm = -0.0054     CD =  0.11953   =>   CDf =  0.00746    CDp =  0.11206

 Side 1 forced transition at x/c =  0.9997   75
 Side 2  free  transition at x/c =  0.1838   35

   9   rms: 0.5131E-01   max: -.4019E+00   T at   35  2
       a =-10.000      CL = -0.3764
      Cm = -0.0104     CD =  0.10615   =>   CDf =  0.00748    CDp =  0.09867

 Side 1 forced transition at x/c =  0.9997   75
 Side 2  free  transition at x/c =  0.1873   35

  10   rms: 0.2828E-01   max: -.1654E+00   D at   35  2
       a =-10.000      CL = -0.3796
      Cm = -0.0114     CD =  0.10521   =>   CDf =  0.00765    CDp =  0.09756

 Side 1 forced transition at x/c =  0.9997   75
 Side 2  free  transition at x/c =  0.1880   35

  11   rms: 0.1372E-01   max: 0.4864E-01   T at   35  2
       a =-10.000      CL = -0.3924
      Cm = -0.0104     CD =  0.10755   =>   CDf =  0.00762    CDp =  0.09993

 Side 1 forced transition at x/c =  0.9997   75
 Side 2  free  transition at x/c =  0.1873   35

  12   rms: 0.9111E-03   max: 0.5722E-02   D at   96  2
       a =-10.000      CL = -0.3917
      Cm = -0.0104     CD =  0.10778   =>   CDf =  0.00758    CDp =  0.10020

 Side 1 forced transition at x/c =  0.9997   75
 Side 2  free  transition at x/c =  0.1874   35

  13   rms: 0.9714E-04   max: 0.3523E-03   T at   35  2
       a =-10.000      CL = -0.3918
      Cm = -0.0104     CD =  0.10777   =>   CDf =  0.00757    CDp =  0.10019
 plradd ia,ip,cpol           12          74  5.15398290E-03

 Point added to stored polar  1
 Save file unspecified or not available
 Dump file unspecified or not available

.OPERva   c>  
.OPERva   c>  
.OPERva   c>  
        airfoil                    Re           Mach       Ncrit  XtripT  XtripB     file
       ------------------------  ------------  ----------  -----  ------  ------    -------------------
 >  1  naca pippo                5.000e4       0.000        9.00   1.000   1.000    

Enter polar output filename   s>  
.OPERva   c>  
 ==============================================================
 Polar  1
  
       XFOIL         Version 6.99
  
 Calculated polar for: naca pippo                                      
  
 1 1 Reynolds number fixed          Mach number fixed         
  
 xtrf =   1.000 (top)        1.000 (bottom)  
 Mach =   0.000     Re =     0.050 e 6     Ncrit =   9.000
  
   alpha    CL        CD       CDp       CM     Top_Xtr  Bot_Xtr
  ------ -------- --------- --------- -------- -------- --------
   2.000   0.7815   0.02461   0.01483  -0.0745   0.6112   0.4714
   1.000   0.6428   0.02710   0.01763  -0.0805   0.8137   0.4581
   0.000   0.4022   0.03132   0.02127  -0.0643   0.9247   0.4426
  -1.000   0.1646   0.03139   0.02144  -0.0385   0.9997   0.4233
  -2.000   0.0771   0.03122   0.02149  -0.0371   0.9997   0.4027
  -3.000  -0.0273   0.03354   0.02446  -0.0335   0.9997   0.3876
  -5.000  -0.3035   0.04870   0.04211  -0.0008   0.9997   0.4815
  -6.000  -0.3182   0.06047   0.05359  -0.0155   0.9997   0.3196
  -7.000  -0.3529   0.07194   0.06505  -0.0167   0.9997   0.2350
  -8.000  -0.3863   0.08683   0.07977  -0.0197   0.9997   0.2111
  -9.000  -0.4121   0.10002   0.09284  -0.0167   0.9997   0.1964
 -10.000  -0.3918   0.10777   0.10019  -0.0104   0.9997   0.1874

.OPERva   c>  
 XFOIL   c>  