
 ===================================================
  XFOIL Version 6.99
  Copyright (C) 2000   Mark Drela, Harold Youngren

  This software comes with ABSOLUTELY NO WARRANTY,
    subject to the GNU General Public License.

  Caveat computor
 ===================================================

 File  xfoil.def  not found

   QUIT    Exit program

  .OPER    Direct operating point(s)
  .MDES    Complex mapping design routine
  .QDES    Surface speed design routine
  .GDES    Geometry design routine

   SAVE f  Write airfoil to labeled coordinate file
   PSAV f  Write airfoil to plain coordinate file
   ISAV f  Write airfoil to ISES coordinate file
   MSAV f  Write airfoil to MSES coordinate file
   REVE    Reverse written-airfoil node ordering

   LOAD f  Read buffer airfoil from coordinate file
   NACA i  Set NACA 4,5-digit airfoil and buffer airfoil
   INTE    Set buffer airfoil by interpolating two airfoils
   NORM    Buffer airfoil normalization toggle
   XYCM rr Change CM reference location, currently  0.25000 0.00000

   BEND    Display structural properties of current airfoil

   PCOP    Set current-airfoil panel nodes directly from buffer airfoil points
   PANE    Set current-airfoil panel nodes ( 160 ) based on curvature
  .PPAR    Show/change paneling

  .PLOP    Plotting options

   WDEF f  Write  current-settings file
   RDEF f  Reread current-settings file
   NAME s  Specify new airfoil name
   NINC    Increment name version number

   Z       Zoom    | (available in all menus)
   U       Unzoom  | 

 XFOIL   c>  
 Labeled airfoil file.  Name:  naca pippo                                      

 Number of input coordinate points: 240
 Counterclockwise ordering
 Max thickness =     0.131969  at x =   0.448
 Max camber    =     0.041841  at x =   0.558

  LE  x,y  =  -0.00155   0.03361  |   Chord =   0.99854
  TE  x,y  =   0.99646   0.00112  |

 Current airfoil nodes set from buffer airfoil nodes ( 240 )

 WARNING: Poor input coordinate distribution
          Excessive panel angle   55.8  at i = 239
          Repaneling with PANE and/or PPAR suggested
           (doing GDES,CADD before repaneling _may_
            improve excessively coarse LE spacing

 XFOIL   c>  
 Blunt trailing edge.  Gap =  0.01272

 Paneling parameters used...
   Number of panel nodes       160
   Panel bunching parameter    1.000
   TE/LE panel density ratio   0.150
   Refined-area/LE panel density ratio    0.200
   Top    side refined area x/c limits  1.000 1.000
   Bottom side refined area x/c limits  1.000 1.000

 XFOIL   c>   N    command not recognized.  Type a "?" for list

 XFOIL   c>   330  command not recognized.  Type a "?" for list

 XFOIL   c>  
 XFOIL   c>  
.OPERi   c>   Current iteration limit:          10

Enter new iteration limit   i>  
.OPERi   c>  
 XFOIL   c>  
 XFOIL   c>  
 XFOIL   c>  
.OPERi   c>  
.OPERi   c>  
.OPERi   c>  
 M  =    0.0000
 Re =     50000

.OPERv   c>  
 Polar  1 newly created for accumulation
 Airfoil archived with polar: naca pippo                                      

Enter  polar save filename  OR  <return> for no file   s>  
 Polar save file will NOT be written

Enter  polar dump filename  OR  <return> for no file   s>  
 Polar dump file will NOT be written

 Polar accumulation enabled

.OPERva   c>   Calculating unit vorticity distributions ...
 Calculating wake trajectory ...
 Calculating source influence matrix ...

 Solving BL system ...

 Initializing BL ...
    side            1  ...
 MRCHUE: Inverse mode at  23     Hk =   3.800
 MRCHUE: Inverse mode at  25     Hk =   3.800
 MRCHUE: Convergence failed at  30  side 1    Res =  0.1596E+01
 MRCHUE: Inverse mode at  31     Hk =   3.800
 MRCHUE: Inverse mode at  32     Hk =   4.460
 MRCHUE: Inverse mode at  33     Hk =   5.085
 MRCHUE: Inverse mode at  34     Hk =   5.668
 MRCHUE: Inverse mode at  35     Hk =   6.214
 MRCHUE: Inverse mode at  36     Hk =   6.725
 MRCHUE: Inverse mode at  37     Hk =   7.197
 MRCHUE: Inverse mode at  38     Hk =   7.619
 MRCHUE: Inverse mode at  39     Hk =   7.976
 MRCHUE: Inverse mode at  40     Hk =   8.259
 MRCHUE: Inverse mode at  41     Hk =   8.477
 MRCHUE: Inverse mode at  42     Hk =   8.650
 MRCHUE: Inverse mode at  43     Hk =   8.800
 MRCHUE: Inverse mode at  44     Hk =   8.957
 MRCHUE: Inverse mode at  45     Hk =   9.142
 MRCHUE: Inverse mode at  46     Hk =   9.361
 MRCHUE: Inverse mode at  47     Hk =   9.036
 MRCHUE: Inverse mode at  48     Hk =   7.972
 MRCHUE: Inverse mode at  49     Hk =   7.256
 MRCHUE: Inverse mode at  50     Hk =   6.762
 MRCHUE: Inverse mode at  51     Hk =   6.401
 MRCHUE: Inverse mode at  52     Hk =   6.115
 MRCHUE: Inverse mode at  53     Hk =   5.836
 MRCHUE: Inverse mode at  54     Hk =   5.560
 MRCHUE: Inverse mode at  55     Hk =   5.301
 MRCHUE: Inverse mode at  56     Hk =   5.065
 MRCHUE: Inverse mode at  57     Hk =   4.844
 MRCHUE: Inverse mode at  58     Hk =   4.621
 MRCHUE: Inverse mode at  59     Hk =   4.388
 MRCHUE: Inverse mode at  60     Hk =   4.146
 MRCHUE: Inverse mode at  61     Hk =   3.891
 MRCHUE: Inverse mode at  62     Hk =   3.632
 MRCHUE: Inverse mode at  63     Hk =   3.386
 MRCHUE: Inverse mode at  84     Hk =   2.500
 MRCHUE: Inverse mode at  86     Hk =   2.500
 MRCHUE: Inverse mode at  87     Hk =   2.500
 MRCHUE: Inverse mode at  88     Hk =   2.500
 MRCHUE: Inverse mode at  89     Hk =   2.500
 MRCHUE: Inverse mode at  90     Hk =   2.500
 MRCHUE: Inverse mode at  91     Hk =   2.500
 MRCHUE: Convergence failed at  92  side 1    Res =  0.3936E+01
    side            2  ...
 MRCHUE: Inverse mode at   8     Hk =   3.800
 MRCHUE: Convergence failed at   9  side 2    Res =  0.2080E+01
 MRCHUE: Inverse mode at  10     Hk =   4.140
 MRCHUE: Inverse mode at  13     Hk =   3.800
 MRCHUE: Inverse mode at  17     Hk =   3.800
 MRCHUE: Convergence failed at  18  side 2    Res =  0.1940E+01
 MRCHUE: Inverse mode at  19     Hk =   4.117
 MRCHUE: Convergence failed at  23  side 2    Res =  0.5938E+01
 MRCHUE: Inverse mode at  24     Hk =   3.800
 MRCHUE: Inverse mode at  28     Hk =   3.800
 MRCHUE: Inverse mode at  35     Hk =   3.800
 MRCHUE: Inverse mode at  50     Hk =   3.800
 MRCHUE: Inverse mode at  64     Hk =   3.800
 MRCHUE: Convergence failed at  70  side 2    Res =  0.3133E+02
 MRCHUE: Inverse mode at  72     Hk =   2.453

 MRCHDU: Convergence failed at  76  side 1    Res =  0.1047E+01
 MRCHDU: Convergence failed at  81  side 1    Res =  0.1619E+01
 MRCHDU: Convergence failed at  82  side 1    Res =  0.2133E+01
 MRCHDU: Convergence failed at  83  side 1    Res =  0.3932E+01
 MRCHDU: Convergence failed at  84  side 1    Res =  0.2504E+01
 MRCHDU: Convergence failed at  85  side 1    Res =  0.1485E+01
 MRCHDU: Convergence failed at  86  side 1    Res =  0.2734E+01
 MRCHDU: Convergence failed at  87  side 1    Res =  0.2829E+01
 MRCHDU: Convergence failed at  88  side 1    Res =  0.2938E+01
 MRCHDU: Convergence failed at  89  side 1    Res =  0.3037E+01
 MRCHDU: Convergence failed at  90  side 1    Res =  0.3138E+01
 MRCHDU: Convergence failed at  91  side 1    Res =  0.3267E+01
 MRCHDU: Convergence failed at  92  side 1    Res =  0.8713E+01
 MRCHDU: Convergence failed at  70  side 2    Res =  0.2506E+01
 Side 1  free  transition at x/c =  0.4987   47
 Side 2 forced transition at x/c =  1.0012   70

   1   rms: 0.8592E+00   max: -.1963E+02   C at   70  2   RLX: 0.025
       a =  2.000      CL =  0.6313
      Cm = -0.0306     CD =  0.00878   =>   CDf =  0.01328    CDp = -0.00449

 Side 1  free  transition at x/c =  0.5001   47
 Side 2 forced transition at x/c =  1.0012   70

   2   rms: 0.4797E+00   max: -.1147E+01   U at   70  2   RLX: 0.327
       a =  2.000      CL =  0.5650
      Cm = -0.0121     CD =  0.00989   =>   CDf =  0.01312    CDp = -0.00323

 MRCHDU: Convergence failed at  52  side 1    Res =  0.1541E+01
 MRCHDU: Convergence failed at  53  side 1    Res =  0.9550E+01
 MRCHDU: Convergence failed at  54  side 1    Res =  0.1440E+02
 MRCHDU: Convergence failed at  55  side 1    Res =  0.6645E+01
 MRCHDU: Convergence failed at  56  side 1    Res =  0.4956E+01
 MRCHDU: Convergence failed at  57  side 1    Res =  0.4062E+01
 MRCHDU: Convergence failed at  58  side 1    Res =  0.3955E+01
 MRCHDU: Convergence failed at  59  side 1    Res =  0.3714E+01
 MRCHDU: Convergence failed at  60  side 1    Res =  0.3827E+01
 MRCHDU: Convergence failed at  61  side 1    Res =  0.4129E+01
 MRCHDU: Convergence failed at  62  side 1    Res =  0.4556E+01
 MRCHDU: Convergence failed at  63  side 1    Res =  0.5448E+01
 MRCHDU: Convergence failed at  64  side 1    Res =  0.9284E+01
 MRCHDU: Convergence failed at  65  side 1    Res =  0.4150E+01
 MRCHDU: Convergence failed at  66  side 1    Res =  0.6160E+01
 MRCHDU: Convergence failed at  67  side 1    Res =  0.1431E+02
 MRCHDU: Convergence failed at  68  side 1    Res =  0.4144E+01
 MRCHDU: Convergence failed at  69  side 1    Res =  0.2998E+02
 MRCHDU: Convergence failed at  70  side 1    Res =  0.1260E+03
 MRCHDU: Convergence failed at  71  side 1    Res =  0.1388E+02
 MRCHDU: Convergence failed at  72  side 1    Res =  0.1265E+02
 MRCHDU: Convergence failed at  73  side 1    Res =  0.4760E+03
 MRCHDU: Convergence failed at  74  side 1    Res =  0.5249E+02
 MRCHDU: Convergence failed at  75  side 1    Res =  0.4032E+02
 MRCHDU: Convergence failed at  76  side 1    Res =  0.3477E+02
 MRCHDU: Convergence failed at  77  side 1    Res =  0.2268E+02
 MRCHDU: Convergence failed at  78  side 1    Res =  0.8504E+01
 MRCHDU: Convergence failed at  79  side 1    Res =  0.1158E+02
 MRCHDU: Convergence failed at  80  side 1    Res =  0.8320E+01
 MRCHDU: Convergence failed at  81  side 1    Res =  0.1135E+02
 MRCHDU: Convergence failed at  82  side 1    Res =  0.1296E+02
 MRCHDU: Convergence failed at  83  side 1    Res =  0.1442E+02
 MRCHDU: Convergence failed at  84  side 1    Res =  0.1463E+02
 MRCHDU: Convergence failed at  85  side 1    Res =  0.1532E+02
 MRCHDU: Convergence failed at  86  side 1    Res =  0.1580E+02
 MRCHDU: Convergence failed at  87  side 1    Res =  0.1679E+02
 MRCHDU: Convergence failed at  88  side 1    Res =  0.1731E+02
 MRCHDU: Convergence failed at  89  side 1    Res =  0.1845E+02
 MRCHDU: Convergence failed at  90  side 1    Res =  0.1889E+02
 MRCHDU: Convergence failed at  91  side 1    Res =  0.2011E+02
 MRCHDU: Convergence failed at  92  side 1    Res =  0.1913E+02
 Side 1  free  transition at x/c =  0.5555   51
 Side 2 forced transition at x/c =  1.0012   70

   3   rms: 0.9363E+00   max: 0.4889E+01   D at   74  2   RLX: 0.307
       a =  2.000      CL =  0.7865
      Cm = -0.1320     CD =  0.00492   =>   CDf =  0.01206    CDp = -0.00713

 Side 1  free  transition at x/c =  0.5163   48
 Side 2 forced transition at x/c =  1.0012   70

   4   rms: 0.4007E+00   max: 0.1091E+01   D at   80  2   RLX: 0.453
       a =  2.000      CL =  0.7181
      Cm = -0.0854     CD =  0.00950   =>   CDf =  0.01591    CDp = -0.00641

 Side 1  free  transition at x/c =  0.4822   46
 Side 2 forced transition at x/c =  1.0012   70

   5   rms: 0.2787E+00   max: 0.9099E+00   D at   80  2   RLX: 0.687
       a =  2.000      CL =  0.6818
      Cm = -0.0589     CD =  0.01665   =>   CDf =  0.01455    CDp =  0.00210

 Side 1  free  transition at x/c =  0.4608   44
 Side 2 forced transition at x/c =  1.0012   70

   6   rms: 0.1429E+00   max: 0.1153E+01   C at   70  2
       a =  2.000      CL =  0.6971
      Cm = -0.0588     CD =  0.02601   =>   CDf =  0.01321    CDp =  0.01281

 Side 1  free  transition at x/c =  0.4458   43
 Side 2 forced transition at x/c =  1.0012   69

   7   rms: 0.5571E-01   max: -.7200E+00   D at    2  1   RLX: 0.694
       a =  2.000      CL =  0.7186
      Cm = -0.0641     CD =  0.02797   =>   CDf =  0.01261    CDp =  0.01536

 Side 1  free  transition at x/c =  0.4435   43
 Side 2 forced transition at x/c =  1.0012   69

   8   rms: 0.1518E-01   max: 0.1602E+00   C at   69  2
       a =  2.000      CL =  0.7330
      Cm = -0.0673     CD =  0.02831   =>   CDf =  0.01261    CDp =  0.01570

 Side 1  free  transition at x/c =  0.4423   43
 Side 2 forced transition at x/c =  1.0012   69

   9   rms: 0.3579E-03   max: 0.2461E-02   C at   69  2
       a =  2.000      CL =  0.7332
      Cm = -0.0674     CD =  0.02832   =>   CDf =  0.01261    CDp =  0.01571

 Side 1  free  transition at x/c =  0.4423   43
 Side 2 forced transition at x/c =  1.0012   69

  10   rms: 0.1036E-04   max: -.4235E-04   D at   71  2
       a =  2.000      CL =  0.7332
      Cm = -0.0674     CD =  0.02832   =>   CDf =  0.01261    CDp =  0.01571
 plradd ia,ip,cpol            1          92  0.11249892    

 Point added to stored polar  1
 Save file unspecified or not available
 Dump file unspecified or not available

.OPERva   c>  
.OPERva   c>  
.OPERva   c>   Calculating wake trajectory ...
 Calculating source influence matrix ...

 Solving BL system ...

 Side 1  free  transition at x/c =  0.4423   43
 Side 2 forced transition at x/c =  1.0012   69
 idif Ue xi dudx           2  0.34530589      6.33978844E-03   54.466469    
 Uenew xinew           3  0.19364452      3.55529785E-03

   1   rms: 0.1591E+00   max: -.1620E+00   T at   71  2
       a =  1.000      CL =  0.5969
      Cm = -0.0640     CD =  0.02636   =>   CDf =  0.01299    CDp =  0.01337

 Side 1  free  transition at x/c =  0.4695   44
 Side 2 forced transition at x/c =  1.0012   71

   2   rms: 0.4631E-01   max: -.1919E+00   D at    4  2
       a =  1.000      CL =  0.6216
      Cm = -0.0680     CD =  0.02618   =>   CDf =  0.01203    CDp =  0.01415

 Side 1  free  transition at x/c =  0.4711   44
 Side 2 forced transition at x/c =  1.0012   71

   3   rms: 0.6614E-02   max: -.7773E-01   T at    4  2
       a =  1.000      CL =  0.6187
      Cm = -0.0674     CD =  0.02624   =>   CDf =  0.01169    CDp =  0.01455

 Side 1  free  transition at x/c =  0.4709   44
 Side 2 forced transition at x/c =  1.0012   71

   4   rms: 0.1148E-02   max: 0.1276E-01   D at    4  2
       a =  1.000      CL =  0.6187
      Cm = -0.0674     CD =  0.02624   =>   CDf =  0.01170    CDp =  0.01454

 Side 1  free  transition at x/c =  0.4709   44
 Side 2 forced transition at x/c =  1.0012   71

   5   rms: 0.2616E-05   max: -.2908E-04   D at   12  2
       a =  1.000      CL =  0.6187
      Cm = -0.0674     CD =  0.02624   =>   CDf =  0.01170    CDp =  0.01454
 plradd ia,ip,cpol            2          90  0.11249892    

 Point added to stored polar  1
 Save file unspecified or not available
 Dump file unspecified or not available

.OPERva   c>  
.OPERva   c>  
.OPERva   c>   Calculating wake trajectory ...
 Calculating source influence matrix ...

 Solving BL system ...

 Side 1  free  transition at x/c =  0.4709   44
 Side 2 forced transition at x/c =  1.0012   71
 idif Ue xi dudx           1  0.11455162      3.45015526E-03   33.201874    
 Uenew xinew           2  1.92159526E-02  5.78761101E-04

   1   rms: 0.1531E+00   max: -.1397E+00   T at   73  2   RLX: 0.759
       a =  0.000      CL =  0.5380
      Cm = -0.0692     CD =  0.02457   =>   CDf =  0.01178    CDp =  0.01279

 Side 1  free  transition at x/c =  0.4987   45
 Side 2 forced transition at x/c =  1.0012   72

   2   rms: 0.8216E-01   max: -.7826E+00   C at   45  1   RLX: 0.639
       a =  0.000      CL =  0.5265
      Cm = -0.0696     CD =  0.02447   =>   CDf =  0.01083    CDp =  0.01365

 Side 1  free  transition at x/c =  0.5149   46
 Side 2 forced transition at x/c =  1.0012   72

   3   rms: 0.8576E-01   max: -.8695E+00   C at   46  1   RLX: 0.575
       a =  0.000      CL =  0.5221
      Cm = -0.0712     CD =  0.02549   =>   CDf =  0.01009    CDp =  0.01539

 Side 1  free  transition at x/c =  0.5221   46
 Side 2 forced transition at x/c =  1.0012   72

   4   rms: 0.5789E-01   max: -.5425E+00   C at   46  1   RLX: 0.922
       a =  0.000      CL =  0.5257
      Cm = -0.0734     CD =  0.02549   =>   CDf =  0.00983    CDp =  0.01566

 MRCHDU: Convergence failed at  72  side 1    Res =  0.1330E+01
 MRCHDU: Convergence failed at  73  side 1    Res =  0.1433E+01
 MRCHDU: Convergence failed at  74  side 1    Res =  0.1616E+01
 MRCHDU: Convergence failed at  75  side 1    Res =  0.1552E+01
 MRCHDU: Convergence failed at  76  side 1    Res =  0.1687E+01
 MRCHDU: Convergence failed at  77  side 1    Res =  0.2177E+01
 MRCHDU: Convergence failed at  78  side 1    Res =  0.2523E+01
 MRCHDU: Convergence failed at  79  side 1    Res =  0.2742E+01
 MRCHDU: Convergence failed at  80  side 1    Res =  0.3001E+01
 MRCHDU: Convergence failed at  81  side 1    Res =  0.3224E+01
 MRCHDU: Convergence failed at  82  side 1    Res =  0.3119E+01
 MRCHDU: Convergence failed at  83  side 1    Res =  0.3359E+01
 MRCHDU: Convergence failed at  84  side 1    Res =  0.3366E+01
 MRCHDU: Convergence failed at  85  side 1    Res =  0.3450E+01
 MRCHDU: Convergence failed at  86  side 1    Res =  0.3360E+01
 MRCHDU: Convergence failed at  87  side 1    Res =  0.3493E+01
 MRCHDU: Convergence failed at  88  side 1    Res =  0.3269E+01
 MRCHDU: Convergence failed at  89  side 1    Res =  0.3623E+01
 MRCHDU: Convergence failed at  90  side 1    Res =  0.3567E+01
 Side 1  free  transition at x/c =  0.5468   48
 Side 2 forced transition at x/c =  1.0012   72

   5   rms: 0.2445E+00   max: 0.7748E+00   T at   90  1
       a =  0.000      CL =  0.5195
      Cm = -0.0750     CD =  0.02333   =>   CDf =  0.00927    CDp =  0.01406

 Side 1  free  transition at x/c =  0.5344   47
 Side 2 forced transition at x/c =  1.0012   72

   6   rms: 0.6742E-01   max: 0.2564E+00   D at   73  1
       a =  0.000      CL =  0.4650
      Cm = -0.0692     CD =  0.03001   =>   CDf =  0.00906    CDp =  0.02095

 Side 1  free  transition at x/c =  0.5351   47
 Side 2 forced transition at x/c =  1.0012   72

   7   rms: 0.4007E-01   max: -.2977E+00   C at   47  1
       a =  0.000      CL =  0.4619
      Cm = -0.0687     CD =  0.02977   =>   CDf =  0.00871    CDp =  0.02106

 Side 1  free  transition at x/c =  0.5360   47
 Side 2 forced transition at x/c =  1.0012   72

   8   rms: 0.3808E-01   max: -.3085E+00   C at   47  1
       a =  0.000      CL =  0.4606
      Cm = -0.0687     CD =  0.02986   =>   CDf =  0.00867    CDp =  0.02119

 Side 1  free  transition at x/c =  0.5353   47
 Side 2 forced transition at x/c =  1.0012   72

   9   rms: 0.4120E-01   max: -.3172E+00   C at   47  1
       a =  0.000      CL =  0.4613
      Cm = -0.0687     CD =  0.02977   =>   CDf =  0.00866    CDp =  0.02111

 Side 1  free  transition at x/c =  0.5361   47
 Side 2 forced transition at x/c =  1.0012   72

  10   rms: 0.3837E-01   max: -.3111E+00   C at   47  1
       a =  0.000      CL =  0.4604
      Cm = -0.0686     CD =  0.02988   =>   CDf =  0.00866    CDp =  0.02122

 Side 1  free  transition at x/c =  0.5352   47
 Side 2 forced transition at x/c =  1.0012   72

  11   rms: 0.4173E-01   max: -.3186E+00   C at   47  1
       a =  0.000      CL =  0.4613
      Cm = -0.0687     CD =  0.02976   =>   CDf =  0.00865    CDp =  0.02110

 Side 1  free  transition at x/c =  0.5362   47
 Side 2 forced transition at x/c =  1.0012   72

  12   rms: 0.3805E-01   max: -.3104E+00   C at   47  1
       a =  0.000      CL =  0.4602
      Cm = -0.0686     CD =  0.02989   =>   CDf =  0.00866    CDp =  0.02123

 Side 1  free  transition at x/c =  0.5351   47
 Side 2 forced transition at x/c =  1.0012   72

  13   rms: 0.4222E-01   max: -.3195E+00   C at   47  1
       a =  0.000      CL =  0.4615
      Cm = -0.0687     CD =  0.02974   =>   CDf =  0.00865    CDp =  0.02109

 Side 1  free  transition at x/c =  0.5363   47
 Side 2 forced transition at x/c =  1.0012   72

  14   rms: 0.3764E-01   max: -.3093E+00   C at   47  1
       a =  0.000      CL =  0.4601
      Cm = -0.0686     CD =  0.02991   =>   CDf =  0.00866    CDp =  0.02124

 Side 1  free  transition at x/c =  0.5350   47
 Side 2 forced transition at x/c =  1.0012   72

  15   rms: 0.4281E-01   max: -.3204E+00   C at   47  1
       a =  0.000      CL =  0.4618
      Cm = -0.0687     CD =  0.02972   =>   CDf =  0.00865    CDp =  0.02107

 Side 1  free  transition at x/c =  0.5364   47
 Side 2 forced transition at x/c =  1.0012   72

  16   rms: 0.3717E-01   max: -.3080E+00   C at   47  1
       a =  0.000      CL =  0.4600
      Cm = -0.0686     CD =  0.02993   =>   CDf =  0.00867    CDp =  0.02126

 Side 1  free  transition at x/c =  0.5348   47
 Side 2 forced transition at x/c =  1.0012   72

  17   rms: 0.4338E-01   max: -.3214E+00   C at   47  1
       a =  0.000      CL =  0.4620
      Cm = -0.0687     CD =  0.02970   =>   CDf =  0.00865    CDp =  0.02105

 Side 1  free  transition at x/c =  0.5366   47
 Side 2 forced transition at x/c =  1.0012   72

  18   rms: 0.3672E-01   max: -.3068E+00   C at   47  1
       a =  0.000      CL =  0.4598
      Cm = -0.0686     CD =  0.02995   =>   CDf =  0.00867    CDp =  0.02128

 Side 1  free  transition at x/c =  0.5347   47
 Side 2 forced transition at x/c =  1.0012   72

  19   rms: 0.4406E-01   max: -.3225E+00   C at   47  1
       a =  0.000      CL =  0.4622
      Cm = -0.0687     CD =  0.02968   =>   CDf =  0.00865    CDp =  0.02103

 Side 1  free  transition at x/c =  0.5367   47
 Side 2 forced transition at x/c =  1.0012   72

  20   rms: 0.3627E-01   max: -.3054E+00   C at   47  1
       a =  0.000      CL =  0.4597
      Cm = -0.0686     CD =  0.02997   =>   CDf =  0.00867    CDp =  0.02130

 Side 1  free  transition at x/c =  0.5345   47
 Side 2 forced transition at x/c =  1.0012   72

  21   rms: 0.4480E-01   max: -.3238E+00   C at   47  1
       a =  0.000      CL =  0.4624
      Cm = -0.0687     CD =  0.02966   =>   CDf =  0.00865    CDp =  0.02101

 Side 1  free  transition at x/c =  0.5369   47
 Side 2 forced transition at x/c =  1.0012   72

  22   rms: 0.3580E-01   max: -.3039E+00   C at   47  1
       a =  0.000      CL =  0.4595
      Cm = -0.0686     CD =  0.02999   =>   CDf =  0.00867    CDp =  0.02132

 Side 1  free  transition at x/c =  0.5344   47
 Side 2 forced transition at x/c =  1.0012   72

  23   rms: 0.4567E-01   max: -.3251E+00   C at   47  1
       a =  0.000      CL =  0.4627
      Cm = -0.0687     CD =  0.02963   =>   CDf =  0.00865    CDp =  0.02098

 Side 1  free  transition at x/c =  0.5370   48
 Side 2 forced transition at x/c =  1.0012   72

  24   rms: 0.3418E-01   max: -.2809E+00   C at   48  1
       a =  0.000      CL =  0.4588
      Cm = -0.0686     CD =  0.03005   =>   CDf =  0.00868    CDp =  0.02138

 Side 1  free  transition at x/c =  0.5362   47
 Side 2 forced transition at x/c =  1.0012   72

  25   rms: 0.7193E-02   max: -.5547E-01   C at   47  1
       a =  0.000      CL =  0.4583
      Cm = -0.0686     CD =  0.03011   =>   CDf =  0.00863    CDp =  0.02148

 Side 1  free  transition at x/c =  0.5347   47
 Side 2 forced transition at x/c =  1.0012   72

  26   rms: 0.4441E-01   max: -.3167E+00   C at   47  1
       a =  0.000      CL =  0.4618
      Cm = -0.0687     CD =  0.02971   =>   CDf =  0.00864    CDp =  0.02107

 Side 1  free  transition at x/c =  0.5365   47
 Side 2 forced transition at x/c =  1.0012   72

  27   rms: 0.3683E-01   max: -.3068E+00   C at   47  1
       a =  0.000      CL =  0.4599
      Cm = -0.0686     CD =  0.02994   =>   CDf =  0.00867    CDp =  0.02127

 Side 1  free  transition at x/c =  0.5348   47
 Side 2 forced transition at x/c =  1.0012   72

  28   rms: 0.4377E-01   max: -.3220E+00   C at   47  1
       a =  0.000      CL =  0.4621
      Cm = -0.0687     CD =  0.02969   =>   CDf =  0.00865    CDp =  0.02104

 Side 1  free  transition at x/c =  0.5367   47
 Side 2 forced transition at x/c =  1.0012   72

  29   rms: 0.3646E-01   max: -.3059E+00   C at   47  1
       a =  0.000      CL =  0.4597
      Cm = -0.0686     CD =  0.02996   =>   CDf =  0.00867    CDp =  0.02129

 Side 1  free  transition at x/c =  0.5346   47
 Side 2 forced transition at x/c =  1.0012   72

  30   rms: 0.4445E-01   max: -.3232E+00   C at   47  1
       a =  0.000      CL =  0.4623
      Cm = -0.0687     CD =  0.02967   =>   CDf =  0.00865    CDp =  0.02102

 Side 1  free  transition at x/c =  0.5368   47
 Side 2 forced transition at x/c =  1.0012   72

  31   rms: 0.3602E-01   max: -.3046E+00   C at   47  1
       a =  0.000      CL =  0.4596
      Cm = -0.0686     CD =  0.02998   =>   CDf =  0.00867    CDp =  0.02131

 Side 1  free  transition at x/c =  0.5344   47
 Side 2 forced transition at x/c =  1.0012   72

  32   rms: 0.4529E-01   max: -.3245E+00   C at   47  1
       a =  0.000      CL =  0.4626
      Cm = -0.0687     CD =  0.02964   =>   CDf =  0.00865    CDp =  0.02100

 Side 1  free  transition at x/c =  0.5370   48
 Side 2 forced transition at x/c =  1.0012   72

  33   rms: 0.3413E-01   max: -.2802E+00   C at   48  1
       a =  0.000      CL =  0.4588
      Cm = -0.0686     CD =  0.03005   =>   CDf =  0.00867    CDp =  0.02138

 Side 1  free  transition at x/c =  0.5362   47
 Side 2 forced transition at x/c =  1.0012   72

  34   rms: 0.7057E-02   max: -.5431E-01   C at   47  1
       a =  0.000      CL =  0.4583
      Cm = -0.0686     CD =  0.03011   =>   CDf =  0.00863    CDp =  0.02148

 Side 1  free  transition at x/c =  0.5347   47
 Side 2 forced transition at x/c =  1.0012   72

  35   rms: 0.4441E-01   max: -.3167E+00   C at   47  1
       a =  0.000      CL =  0.4618
      Cm = -0.0687     CD =  0.02971   =>   CDf =  0.00864    CDp =  0.02107

 Side 1  free  transition at x/c =  0.5365   47
 Side 2 forced transition at x/c =  1.0012   72

  36   rms: 0.3683E-01   max: -.3068E+00   C at   47  1
       a =  0.000      CL =  0.4599
      Cm = -0.0686     CD =  0.02994   =>   CDf =  0.00867    CDp =  0.02127

 Side 1  free  transition at x/c =  0.5348   47
 Side 2 forced transition at x/c =  1.0012   72

  37   rms: 0.4377E-01   max: -.3220E+00   C at   47  1
       a =  0.000      CL =  0.4621
      Cm = -0.0687     CD =  0.02969   =>   CDf =  0.00865    CDp =  0.02104

 Side 1  free  transition at x/c =  0.5367   47
 Side 2 forced transition at x/c =  1.0012   72

  38   rms: 0.3646E-01   max: -.3059E+00   C at   47  1
       a =  0.000      CL =  0.4598
      Cm = -0.0686     CD =  0.02996   =>   CDf =  0.00867    CDp =  0.02129

 Side 1  free  transition at x/c =  0.5346   47
 Side 2 forced transition at x/c =  1.0012   72

  39   rms: 0.4444E-01   max: -.3232E+00   C at   47  1
       a =  0.000      CL =  0.4623
      Cm = -0.0687     CD =  0.02967   =>   CDf =  0.00865    CDp =  0.02102

 Side 1  free  transition at x/c =  0.5368   47
 Side 2 forced transition at x/c =  1.0012   72

  40   rms: 0.3602E-01   max: -.3046E+00   C at   47  1
       a =  0.000      CL =  0.4596
      Cm = -0.0686     CD =  0.02998   =>   CDf =  0.00867    CDp =  0.02131

 Side 1  free  transition at x/c =  0.5344   47
 Side 2 forced transition at x/c =  1.0012   72

  41   rms: 0.4528E-01   max: -.3245E+00   C at   47  1
       a =  0.000      CL =  0.4626
      Cm = -0.0687     CD =  0.02964   =>   CDf =  0.00865    CDp =  0.02100

 Side 1  free  transition at x/c =  0.5369   48
 Side 2 forced transition at x/c =  1.0012   72

  42   rms: 0.3444E-01   max: -.2825E+00   C at   48  1
       a =  0.000      CL =  0.4587
      Cm = -0.0686     CD =  0.03005   =>   CDf =  0.00867    CDp =  0.02138

 Side 1  free  transition at x/c =  0.5362   47
 Side 2 forced transition at x/c =  1.0012   72

  43   rms: 0.7104E-02   max: -.5462E-01   C at   47  1
       a =  0.000      CL =  0.4582
      Cm = -0.0686     CD =  0.03011   =>   CDf =  0.00863    CDp =  0.02148

 Side 1  free  transition at x/c =  0.5347   47
 Side 2 forced transition at x/c =  1.0012   72

  44   rms: 0.4442E-01   max: -.3167E+00   C at   47  1
       a =  0.000      CL =  0.4618
      Cm = -0.0687     CD =  0.02971   =>   CDf =  0.00864    CDp =  0.02107

 Side 1  free  transition at x/c =  0.5365   47
 Side 2 forced transition at x/c =  1.0012   72

  45   rms: 0.3683E-01   max: -.3068E+00   C at   47  1
       a =  0.000      CL =  0.4599
      Cm = -0.0686     CD =  0.02994   =>   CDf =  0.00867    CDp =  0.02127

 Side 1  free  transition at x/c =  0.5348   47
 Side 2 forced transition at x/c =  1.0012   72

  46   rms: 0.4377E-01   max: -.3220E+00   C at   47  1
       a =  0.000      CL =  0.4621
      Cm = -0.0687     CD =  0.02969   =>   CDf =  0.00865    CDp =  0.02104

 Side 1  free  transition at x/c =  0.5367   47
 Side 2 forced transition at x/c =  1.0012   72

  47   rms: 0.3646E-01   max: -.3059E+00   C at   47  1
       a =  0.000      CL =  0.4597
      Cm = -0.0686     CD =  0.02996   =>   CDf =  0.00867    CDp =  0.02129

 Side 1  free  transition at x/c =  0.5346   47
 Side 2 forced transition at x/c =  1.0012   72

  48   rms: 0.4445E-01   max: -.3232E+00   C at   47  1
       a =  0.000      CL =  0.4623
      Cm = -0.0687     CD =  0.02967   =>   CDf =  0.00865    CDp =  0.02102

 Side 1  free  transition at x/c =  0.5368   47
 Side 2 forced transition at x/c =  1.0012   72

  49   rms: 0.3602E-01   max: -.3046E+00   C at   47  1
       a =  0.000      CL =  0.4596
      Cm = -0.0686     CD =  0.02998   =>   CDf =  0.00867    CDp =  0.02131

 Side 1  free  transition at x/c =  0.5344   47
 Side 2 forced transition at x/c =  1.0012   72

  50   rms: 0.4529E-01   max: -.3245E+00   C at   47  1
       a =  0.000      CL =  0.4626
      Cm = -0.0687     CD =  0.02964   =>   CDf =  0.00865    CDp =  0.02100

 Side 1  free  transition at x/c =  0.5370   48
 Side 2 forced transition at x/c =  1.0012   72

  51   rms: 0.3413E-01   max: -.2802E+00   C at   48  1
       a =  0.000      CL =  0.4588
      Cm = -0.0686     CD =  0.03005   =>   CDf =  0.00867    CDp =  0.02138

 Side 1  free  transition at x/c =  0.5362   47
 Side 2 forced transition at x/c =  1.0012   72

  52   rms: 0.7056E-02   max: -.5431E-01   C at   47  1
       a =  0.000      CL =  0.4583
      Cm = -0.0686     CD =  0.03011   =>   CDf =  0.00863    CDp =  0.02148

 Side 1  free  transition at x/c =  0.5347   47
 Side 2 forced transition at x/c =  1.0012   72

  53   rms: 0.4442E-01   max: -.3167E+00   C at   47  1
       a =  0.000      CL =  0.4618
      Cm = -0.0687     CD =  0.02971   =>   CDf =  0.00864    CDp =  0.02107

 Side 1  free  transition at x/c =  0.5365   47
 Side 2 forced transition at x/c =  1.0012   72

  54   rms: 0.3683E-01   max: -.3068E+00   C at   47  1
       a =  0.000      CL =  0.4599
      Cm = -0.0686     CD =  0.02994   =>   CDf =  0.00867    CDp =  0.02127

 Side 1  free  transition at x/c =  0.5348   47
 Side 2 forced transition at x/c =  1.0012   72

  55   rms: 0.4378E-01   max: -.3220E+00   C at   47  1
       a =  0.000      CL =  0.4621
      Cm = -0.0687     CD =  0.02969   =>   CDf =  0.00865    CDp =  0.02104

 Side 1  free  transition at x/c =  0.5367   47
 Side 2 forced transition at x/c =  1.0012   72

  56   rms: 0.3646E-01   max: -.3059E+00   C at   47  1
       a =  0.000      CL =  0.4598
      Cm = -0.0686     CD =  0.02996   =>   CDf =  0.00867    CDp =  0.02129

 Side 1  free  transition at x/c =  0.5346   47
 Side 2 forced transition at x/c =  1.0012   72

  57   rms: 0.4444E-01   max: -.3231E+00   C at   47  1
       a =  0.000      CL =  0.4623
      Cm = -0.0687     CD =  0.02967   =>   CDf =  0.00865    CDp =  0.02102

 Side 1  free  transition at x/c =  0.5368   47
 Side 2 forced transition at x/c =  1.0012   72

  58   rms: 0.3602E-01   max: -.3046E+00   C at   47  1
       a =  0.000      CL =  0.4596
      Cm = -0.0686     CD =  0.02998   =>   CDf =  0.00867    CDp =  0.02131

 Side 1  free  transition at x/c =  0.5344   47
 Side 2 forced transition at x/c =  1.0012   72

  59   rms: 0.4528E-01   max: -.3245E+00   C at   47  1
       a =  0.000      CL =  0.4626
      Cm = -0.0687     CD =  0.02964   =>   CDf =  0.00865    CDp =  0.02100

 Side 1  free  transition at x/c =  0.5369   48
 Side 2 forced transition at x/c =  1.0012   72

  60   rms: 0.3443E-01   max: -.2825E+00   C at   48  1
       a =  0.000      CL =  0.4587
      Cm = -0.0686     CD =  0.03005   =>   CDf =  0.00867    CDp =  0.02138

 Side 1  free  transition at x/c =  0.5362   47
 Side 2 forced transition at x/c =  1.0012   72

  61   rms: 0.7103E-02   max: -.5461E-01   C at   47  1
       a =  0.000      CL =  0.4582
      Cm = -0.0686     CD =  0.03011   =>   CDf =  0.00863    CDp =  0.02148

 Side 1  free  transition at x/c =  0.5347   47
 Side 2 forced transition at x/c =  1.0012   72

  62   rms: 0.4441E-01   max: -.3167E+00   C at   47  1
       a =  0.000      CL =  0.4618
      Cm = -0.0687     CD =  0.02971   =>   CDf =  0.00864    CDp =  0.02107

 Side 1  free  transition at x/c =  0.5365   47
 Side 2 forced transition at x/c =  1.0012   72

  63   rms: 0.3683E-01   max: -.3068E+00   C at   47  1
       a =  0.000      CL =  0.4599
      Cm = -0.0686     CD =  0.02994   =>   CDf =  0.00867    CDp =  0.02127

 Side 1  free  transition at x/c =  0.5348   47
 Side 2 forced transition at x/c =  1.0012   72

  64   rms: 0.4377E-01   max: -.3220E+00   C at   47  1
       a =  0.000      CL =  0.4621
      Cm = -0.0687     CD =  0.02969   =>   CDf =  0.00865    CDp =  0.02104

 Side 1  free  transition at x/c =  0.5367   47
 Side 2 forced transition at x/c =  1.0012   72

  65   rms: 0.3646E-01   max: -.3059E+00   C at   47  1
       a =  0.000      CL =  0.4597
      Cm = -0.0686     CD =  0.02996   =>   CDf =  0.00867    CDp =  0.02129

 Side 1  free  transition at x/c =  0.5346   47
 Side 2 forced transition at x/c =  1.0012   72

  66   rms: 0.4444E-01   max: -.3232E+00   C at   47  1
       a =  0.000      CL =  0.4623
      Cm = -0.0687     CD =  0.02967   =>   CDf =  0.00865    CDp =  0.02102

 Side 1  free  transition at x/c =  0.5368   47
 Side 2 forced transition at x/c =  1.0012   72

  67   rms: 0.3602E-01   max: -.3046E+00   C at   47  1
       a =  0.000      CL =  0.4596
      Cm = -0.0686     CD =  0.02998   =>   CDf =  0.00867    CDp =  0.02131

 Side 1  free  transition at x/c =  0.5344   47
 Side 2 forced transition at x/c =  1.0012   72

  68   rms: 0.4528E-01   max: -.3245E+00   C at   47  1
       a =  0.000      CL =  0.4626
      Cm = -0.0687     CD =  0.02964   =>   CDf =  0.00865    CDp =  0.02100

 Side 1  free  transition at x/c =  0.5369   48
 Side 2 forced transition at x/c =  1.0012   72

  69   rms: 0.3443E-01   max: -.2824E+00   C at   48  1
       a =  0.000      CL =  0.4588
      Cm = -0.0686     CD =  0.03005   =>   CDf =  0.00867    CDp =  0.02138

 Side 1  free  transition at x/c =  0.5362   47
 Side 2 forced transition at x/c =  1.0012   72

  70   rms: 0.7100E-02   max: -.5459E-01   C at   47  1
       a =  0.000      CL =  0.4582
      Cm = -0.0686     CD =  0.03011   =>   CDf =  0.00863    CDp =  0.02148

 Side 1  free  transition at x/c =  0.5347   47
 Side 2 forced transition at x/c =  1.0012   72

  71   rms: 0.4441E-01   max: -.3167E+00   C at   47  1
       a =  0.000      CL =  0.4618
      Cm = -0.0687     CD =  0.02971   =>   CDf =  0.00864    CDp =  0.02107

 Side 1  free  transition at x/c =  0.5365   47
 Side 2 forced transition at x/c =  1.0012   72

  72   rms: 0.3683E-01   max: -.3068E+00   C at   47  1
       a =  0.000      CL =  0.4599
      Cm = -0.0686     CD =  0.02994   =>   CDf =  0.00867    CDp =  0.02127

 Side 1  free  transition at x/c =  0.5348   47
 Side 2 forced transition at x/c =  1.0012   72

  73   rms: 0.4378E-01   max: -.3220E+00   C at   47  1
       a =  0.000      CL =  0.4621
      Cm = -0.0687     CD =  0.02969   =>   CDf =  0.00865    CDp =  0.02104

 Side 1  free  transition at x/c =  0.5367   47
 Side 2 forced transition at x/c =  1.0012   72

  74   rms: 0.3646E-01   max: -.3059E+00   C at   47  1
       a =  0.000      CL =  0.4597
      Cm = -0.0686     CD =  0.02996   =>   CDf =  0.00867    CDp =  0.02129

 Side 1  free  transition at x/c =  0.5346   47
 Side 2 forced transition at x/c =  1.0012   72

  75   rms: 0.4444E-01   max: -.3232E+00   C at   47  1
       a =  0.000      CL =  0.4623
      Cm = -0.0687     CD =  0.02967   =>   CDf =  0.00865    CDp =  0.02102

 Side 1  free  transition at x/c =  0.5368   47
 Side 2 forced transition at x/c =  1.0012   72

  76   rms: 0.3602E-01   max: -.3046E+00   C at   47  1
       a =  0.000      CL =  0.4596
      Cm = -0.0686     CD =  0.02998   =>   CDf =  0.00867    CDp =  0.02131

 Side 1  free  transition at x/c =  0.5344   47
 Side 2 forced transition at x/c =  1.0012   72

  77   rms: 0.4528E-01   max: -.3245E+00   C at   47  1
       a =  0.000      CL =  0.4626
      Cm = -0.0687     CD =  0.02964   =>   CDf =  0.00865    CDp =  0.02100

 Side 1  free  transition at x/c =  0.5369   48
 Side 2 forced transition at x/c =  1.0012   72

  78   rms: 0.3443E-01   max: -.2825E+00   C at   48  1
       a =  0.000      CL =  0.4587
      Cm = -0.0686     CD =  0.03005   =>   CDf =  0.00867    CDp =  0.02138

 Side 1  free  transition at x/c =  0.5362   47
 Side 2 forced transition at x/c =  1.0012   72

  79   rms: 0.7103E-02   max: -.5461E-01   C at   47  1
       a =  0.000      CL =  0.4582
      Cm = -0.0686     CD =  0.03011   =>   CDf =  0.00863    CDp =  0.02148

 Side 1  free  transition at x/c =  0.5347   47
 Side 2 forced transition at x/c =  1.0012   72

  80   rms: 0.4442E-01   max: -.3167E+00   C at   47  1
       a =  0.000      CL =  0.4618
      Cm = -0.0687     CD =  0.02971   =>   CDf =  0.00864    CDp =  0.02107

 Side 1  free  transition at x/c =  0.5365   47
 Side 2 forced transition at x/c =  1.0012   72

  81   rms: 0.3683E-01   max: -.3068E+00   C at   47  1
       a =  0.000      CL =  0.4599
      Cm = -0.0686     CD =  0.02994   =>   CDf =  0.00867    CDp =  0.02127

 Side 1  free  transition at x/c =  0.5348   47
 Side 2 forced transition at x/c =  1.0012   72

  82   rms: 0.4378E-01   max: -.3220E+00   C at   47  1
       a =  0.000      CL =  0.4621
      Cm = -0.0687     CD =  0.02969   =>   CDf =  0.00865    CDp =  0.02104

 Side 1  free  transition at x/c =  0.5367   47
 Side 2 forced transition at x/c =  1.0012   72

  83   rms: 0.3646E-01   max: -.3059E+00   C at   47  1
       a =  0.000      CL =  0.4597
      Cm = -0.0686     CD =  0.02996   =>   CDf =  0.00867    CDp =  0.02129

 Side 1  free  transition at x/c =  0.5346   47
 Side 2 forced transition at x/c =  1.0012   72

  84   rms: 0.4445E-01   max: -.3232E+00   C at   47  1
       a =  0.000      CL =  0.4623
      Cm = -0.0687     CD =  0.02967   =>   CDf =  0.00865    CDp =  0.02102

 Side 1  free  transition at x/c =  0.5368   47
 Side 2 forced transition at x/c =  1.0012   72

  85   rms: 0.3602E-01   max: -.3046E+00   C at   47  1
       a =  0.000      CL =  0.4596
      Cm = -0.0686     CD =  0.02998   =>   CDf =  0.00867    CDp =  0.02131

 Side 1  free  transition at x/c =  0.5344   47
 Side 2 forced transition at x/c =  1.0012   72

  86   rms: 0.4529E-01   max: -.3245E+00   C at   47  1
       a =  0.000      CL =  0.4626
      Cm = -0.0687     CD =  0.02964   =>   CDf =  0.00865    CDp =  0.02100

 Side 1  free  transition at x/c =  0.5370   48
 Side 2 forced transition at x/c =  1.0012   72

  87   rms: 0.3413E-01   max: -.2802E+00   C at   48  1
       a =  0.000      CL =  0.4588
      Cm = -0.0686     CD =  0.03005   =>   CDf =  0.00867    CDp =  0.02138

 Side 1  free  transition at x/c =  0.5362   47
 Side 2 forced transition at x/c =  1.0012   72

  88   rms: 0.7059E-02   max: -.5432E-01   C at   47  1
       a =  0.000      CL =  0.4583
      Cm = -0.0686     CD =  0.03011   =>   CDf =  0.00863    CDp =  0.02148

 Side 1  free  transition at x/c =  0.5347   47
 Side 2 forced transition at x/c =  1.0012   72

  89   rms: 0.4441E-01   max: -.3167E+00   C at   47  1
       a =  0.000      CL =  0.4618
      Cm = -0.0687     CD =  0.02971   =>   CDf =  0.00864    CDp =  0.02107

 Side 1  free  transition at x/c =  0.5365   47
 Side 2 forced transition at x/c =  1.0012   72

  90   rms: 0.3683E-01   max: -.3068E+00   C at   47  1
       a =  0.000      CL =  0.4599
      Cm = -0.0686     CD =  0.02994   =>   CDf =  0.00867    CDp =  0.02127

 Side 1  free  transition at x/c =  0.5348   47
 Side 2 forced transition at x/c =  1.0012   72

  91   rms: 0.4378E-01   max: -.3220E+00   C at   47  1
       a =  0.000      CL =  0.4621
      Cm = -0.0687     CD =  0.02969   =>   CDf =  0.00865    CDp =  0.02104

 Side 1  free  transition at x/c =  0.5367   47
 Side 2 forced transition at x/c =  1.0012   72

  92   rms: 0.3645E-01   max: -.3059E+00   C at   47  1
       a =  0.000      CL =  0.4597
      Cm = -0.0686     CD =  0.02996   =>   CDf =  0.00867    CDp =  0.02129

 Side 1  free  transition at x/c =  0.5346   47
 Side 2 forced transition at x/c =  1.0012   72

  93   rms: 0.4445E-01   max: -.3232E+00   C at   47  1
       a =  0.000      CL =  0.4623
      Cm = -0.0687     CD =  0.02967   =>   CDf =  0.00865    CDp =  0.02102

 Side 1  free  transition at x/c =  0.5368   47
 Side 2 forced transition at x/c =  1.0012   72

  94   rms: 0.3601E-01   max: -.3046E+00   C at   47  1
       a =  0.000      CL =  0.4596
      Cm = -0.0686     CD =  0.02998   =>   CDf =  0.00867    CDp =  0.02131

 Side 1  free  transition at x/c =  0.5344   47
 Side 2 forced transition at x/c =  1.0012   72

  95   rms: 0.4529E-01   max: -.3245E+00   C at   47  1
       a =  0.000      CL =  0.4626
      Cm = -0.0687     CD =  0.02964   =>   CDf =  0.00865    CDp =  0.02100

 Side 1  free  transition at x/c =  0.5370   48
 Side 2 forced transition at x/c =  1.0012   72

  96   rms: 0.3413E-01   max: -.2802E+00   C at   48  1
       a =  0.000      CL =  0.4588
      Cm = -0.0686     CD =  0.03005   =>   CDf =  0.00867    CDp =  0.02138

 Side 1  free  transition at x/c =  0.5362   47
 Side 2 forced transition at x/c =  1.0012   72

  97   rms: 0.7055E-02   max: -.5429E-01   C at   47  1
       a =  0.000      CL =  0.4583
      Cm = -0.0686     CD =  0.03011   =>   CDf =  0.00863    CDp =  0.02148

 Side 1  free  transition at x/c =  0.5347   47
 Side 2 forced transition at x/c =  1.0012   72

  98   rms: 0.4442E-01   max: -.3167E+00   C at   47  1
       a =  0.000      CL =  0.4618
      Cm = -0.0687     CD =  0.02971   =>   CDf =  0.00864    CDp =  0.02107

 Side 1  free  transition at x/c =  0.5365   47
 Side 2 forced transition at x/c =  1.0012   72

  99   rms: 0.3683E-01   max: -.3068E+00   C at   47  1
       a =  0.000      CL =  0.4599
      Cm = -0.0686     CD =  0.02994   =>   CDf =  0.00867    CDp =  0.02127

 Side 1  free  transition at x/c =  0.5348   47
 Side 2 forced transition at x/c =  1.0012   72

 100   rms: 0.4378E-01   max: -.3220E+00   C at   47  1
       a =  0.000      CL =  0.4621
      Cm = -0.0687     CD =  0.02969   =>   CDf =  0.00865    CDp =  0.02104

 Side 1  free  transition at x/c =  0.5367   47
 Side 2 forced transition at x/c =  1.0012   72

 101   rms: 0.3646E-01   max: -.3059E+00   C at   47  1
       a =  0.000      CL =  0.4598
      Cm = -0.0686     CD =  0.02996   =>   CDf =  0.00867    CDp =  0.02129

 Side 1  free  transition at x/c =  0.5346   47
 Side 2 forced transition at x/c =  1.0012   72

 102   rms: 0.4444E-01   max: -.3232E+00   C at   47  1
       a =  0.000      CL =  0.4623
      Cm = -0.0687     CD =  0.02967   =>   CDf =  0.00865    CDp =  0.02102

 Side 1  free  transition at x/c =  0.5368   47
 Side 2 forced transition at x/c =  1.0012   72

 103   rms: 0.3602E-01   max: -.3046E+00   C at   47  1
       a =  0.000      CL =  0.4596
      Cm = -0.0686     CD =  0.02998   =>   CDf =  0.00867    CDp =  0.02131

 Side 1  free  transition at x/c =  0.5344   47
 Side 2 forced transition at x/c =  1.0012   72

 104   rms: 0.4528E-01   max: -.3245E+00   C at   47  1
       a =  0.000      CL =  0.4626
      Cm = -0.0687     CD =  0.02964   =>   CDf =  0.00865    CDp =  0.02100

 Side 1  free  transition at x/c =  0.5369   48
 Side 2 forced transition at x/c =  1.0012   72

 105   rms: 0.3444E-01   max: -.2825E+00   C at   48  1
       a =  0.000      CL =  0.4587
      Cm = -0.0686     CD =  0.03005   =>   CDf =  0.00867    CDp =  0.02138

 Side 1  free  transition at x/c =  0.5362   47
 Side 2 forced transition at x/c =  1.0012   72

 106   rms: 0.7103E-02   max: -.5462E-01   C at   47  1
       a =  0.000      CL =  0.4582
      Cm = -0.0686     CD =  0.03011   =>   CDf =  0.00863    CDp =  0.02148

 Side 1  free  transition at x/c =  0.5347   47
 Side 2 forced transition at x/c =  1.0012   72

 107   rms: 0.4442E-01   max: -.3167E+00   C at   47  1
       a =  0.000      CL =  0.4618
      Cm = -0.0687     CD =  0.02971   =>   CDf =  0.00864    CDp =  0.02107

 Side 1  free  transition at x/c =  0.5365   47
 Side 2 forced transition at x/c =  1.0012   72

 108   rms: 0.3683E-01   max: -.3068E+00   C at   47  1
       a =  0.000      CL =  0.4599
      Cm = -0.0686     CD =  0.02994   =>   CDf =  0.00867    CDp =  0.02127

 Side 1  free  transition at x/c =  0.5348   47
 Side 2 forced transition at x/c =  1.0012   72

 109   rms: 0.4378E-01   max: -.3220E+00   C at   47  1
       a =  0.000      CL =  0.4621
      Cm = -0.0687     CD =  0.02969   =>   CDf =  0.00865    CDp =  0.02104

 Side 1  free  transition at x/c =  0.5367   47
 Side 2 forced transition at x/c =  1.0012   72

 110   rms: 0.3646E-01   max: -.3059E+00   C at   47  1
       a =  0.000      CL =  0.4598
      Cm = -0.0686     CD =  0.02996   =>   CDf =  0.00867    CDp =  0.02129

 Side 1  free  transition at x/c =  0.5346   47
 Side 2 forced transition at x/c =  1.0012   72

 111   rms: 0.4444E-01   max: -.3232E+00   C at   47  1
       a =  0.000      CL =  0.4623
      Cm = -0.0687     CD =  0.02967   =>   CDf =  0.00865    CDp =  0.02102

 Side 1  free  transition at x/c =  0.5368   47
 Side 2 forced transition at x/c =  1.0012   72

 112   rms: 0.3602E-01   max: -.3046E+00   C at   47  1
       a =  0.000      CL =  0.4596
      Cm = -0.0686     CD =  0.02998   =>   CDf =  0.00867    CDp =  0.02131

 Side 1  free  transition at x/c =  0.5344   47
 Side 2 forced transition at x/c =  1.0012   72

 113   rms: 0.4527E-01   max: -.3245E+00   C at   47  1
       a =  0.000      CL =  0.4626
      Cm = -0.0687     CD =  0.02964   =>   CDf =  0.00865    CDp =  0.02100

 Side 1  free  transition at x/c =  0.5369   48
 Side 2 forced transition at x/c =  1.0012   72

 114   rms: 0.3444E-01   max: -.2826E+00   C at   48  1
       a =  0.000      CL =  0.4587
      Cm = -0.0686     CD =  0.03005   =>   CDf =  0.00867    CDp =  0.02138

 Side 1  free  transition at x/c =  0.5362   47
 Side 2 forced transition at x/c =  1.0012   72

 115   rms: 0.7097E-02   max: -.5457E-01   C at   47  1
       a =  0.000      CL =  0.4582
      Cm = -0.0686     CD =  0.03011   =>   CDf =  0.00863    CDp =  0.02148

 Side 1  free  transition at x/c =  0.5347   47
 Side 2 forced transition at x/c =  1.0012   72

 116   rms: 0.4442E-01   max: -.3167E+00   C at   47  1
       a =  0.000      CL =  0.4618
      Cm = -0.0687     CD =  0.02971   =>   CDf =  0.00864    CDp =  0.02107

 Side 1  free  transition at x/c =  0.5365   47
 Side 2 forced transition at x/c =  1.0012   72

 117   rms: 0.3683E-01   max: -.3068E+00   C at   47  1
       a =  0.000      CL =  0.4599
      Cm = -0.0686     CD =  0.02994   =>   CDf =  0.00867    CDp =  0.02127

 Side 1  free  transition at x/c =  0.5348   47
 Side 2 forced transition at x/c =  1.0012   72

 118   rms: 0.4378E-01   max: -.3220E+00   C at   47  1
       a =  0.000      CL =  0.4621
      Cm = -0.0687     CD =  0.02969   =>   CDf =  0.00865    CDp =  0.02104

 Side 1  free  transition at x/c =  0.5367   47
 Side 2 forced transition at x/c =  1.0012   72

 119   rms: 0.3646E-01   max: -.3059E+00   C at   47  1
       a =  0.000      CL =  0.4597
      Cm = -0.0686     CD =  0.02996   =>   CDf =  0.00867    CDp =  0.02129

 Side 1  free  transition at x/c =  0.5346   47
 Side 2 forced transition at x/c =  1.0012   72

 120   rms: 0.4444E-01   max: -.3232E+00   C at   47  1
       a =  0.000      CL =  0.4623
      Cm = -0.0687     CD =  0.02967   =>   CDf =  0.00865    CDp =  0.02102

 Side 1  free  transition at x/c =  0.5368   47
 Side 2 forced transition at x/c =  1.0012   72

 121   rms: 0.3601E-01   max: -.3046E+00   C at   47  1
       a =  0.000      CL =  0.4596
      Cm = -0.0686     CD =  0.02998   =>   CDf =  0.00867    CDp =  0.02131

 Side 1  free  transition at x/c =  0.5344   47
 Side 2 forced transition at x/c =  1.0012   72

 122   rms: 0.4529E-01   max: -.3245E+00   C at   47  1
       a =  0.000      CL =  0.4626
      Cm = -0.0687     CD =  0.02964   =>   CDf =  0.00865    CDp =  0.02100

 Side 1  free  transition at x/c =  0.5370   48
 Side 2 forced transition at x/c =  1.0012   72

 123   rms: 0.3413E-01   max: -.2802E+00   C at   48  1
       a =  0.000      CL =  0.4588
      Cm = -0.0686     CD =  0.03005   =>   CDf =  0.00867    CDp =  0.02138

 Side 1  free  transition at x/c =  0.5362   47
 Side 2 forced transition at x/c =  1.0012   72

 124   rms: 0.7056E-02   max: -.5431E-01   C at   47  1
       a =  0.000      CL =  0.4583
      Cm = -0.0686     CD =  0.03011   =>   CDf =  0.00863    CDp =  0.02148

 Side 1  free  transition at x/c =  0.5347   47
 Side 2 forced transition at x/c =  1.0012   72

 125   rms: 0.4441E-01   max: -.3167E+00   C at   47  1
       a =  0.000      CL =  0.4618
      Cm = -0.0687     CD =  0.02971   =>   CDf =  0.00864    CDp =  0.02107

 Side 1  free  transition at x/c =  0.5365   47
 Side 2 forced transition at x/c =  1.0012   72

 126   rms: 0.3683E-01   max: -.3068E+00   C at   47  1
       a =  0.000      CL =  0.4599
      Cm = -0.0686     CD =  0.02994   =>   CDf =  0.00867    CDp =  0.02127

 Side 1  free  transition at x/c =  0.5348   47
 Side 2 forced transition at x/c =  1.0012   72

 127   rms: 0.4377E-01   max: -.3220E+00   C at   47  1
       a =  0.000      CL =  0.4621
      Cm = -0.0687     CD =  0.02969   =>   CDf =  0.00865    CDp =  0.02104

 Side 1  free  transition at x/c =  0.5367   47
 Side 2 forced transition at x/c =  1.0012   72

 128   rms: 0.3646E-01   max: -.3059E+00   C at   47  1
       a =  0.000      CL =  0.4597
      Cm = -0.0686     CD =  0.02996   =>   CDf =  0.00867    CDp =  0.02129

 Side 1  free  transition at x/c =  0.5346   47
 Side 2 forced transition at x/c =  1.0012   72

 129   rms: 0.4445E-01   max: -.3232E+00   C at   47  1
       a =  0.000      CL =  0.4623
      Cm = -0.0687     CD =  0.02967   =>   CDf =  0.00865    CDp =  0.02102

 Side 1  free  transition at x/c =  0.5368   47
 Side 2 forced transition at x/c =  1.0012   72

 130   rms: 0.3601E-01   max: -.3046E+00   C at   47  1
       a =  0.000      CL =  0.4596
      Cm = -0.0686     CD =  0.02998   =>   CDf =  0.00867    CDp =  0.02131

 Side 1  free  transition at x/c =  0.5344   47
 Side 2 forced transition at x/c =  1.0012   72

 131   rms: 0.4529E-01   max: -.3245E+00   C at   47  1
       a =  0.000      CL =  0.4626
      Cm = -0.0687     CD =  0.02964   =>   CDf =  0.00865    CDp =  0.02100

 Side 1  free  transition at x/c =  0.5370   48
 Side 2 forced transition at x/c =  1.0012   72

 132   rms: 0.3413E-01   max: -.2802E+00   C at   48  1
       a =  0.000      CL =  0.4588
      Cm = -0.0686     CD =  0.03005   =>   CDf =  0.00867    CDp =  0.02138

 Side 1  free  transition at x/c =  0.5362   47
 Side 2 forced transition at x/c =  1.0012   72

 133   rms: 0.7058E-02   max: -.5432E-01   C at   47  1
       a =  0.000      CL =  0.4583
      Cm = -0.0686     CD =  0.03011   =>   CDf =  0.00863    CDp =  0.02148

 Side 1  free  transition at x/c =  0.5347   47
 Side 2 forced transition at x/c =  1.0012   72

 134   rms: 0.4441E-01   max: -.3167E+00   C at   47  1
       a =  0.000      CL =  0.4618
      Cm = -0.0687     CD =  0.02971   =>   CDf =  0.00864    CDp =  0.02107

 Side 1  free  transition at x/c =  0.5365   47
 Side 2 forced transition at x/c =  1.0012   72

 135   rms: 0.3683E-01   max: -.3068E+00   C at   47  1
       a =  0.000      CL =  0.4599
      Cm = -0.0686     CD =  0.02994   =>   CDf =  0.00867    CDp =  0.02127

 Side 1  free  transition at x/c =  0.5348   47
 Side 2 forced transition at x/c =  1.0012   72

 136   rms: 0.4378E-01   max: -.3220E+00   C at   47  1
       a =  0.000      CL =  0.4621
      Cm = -0.0687     CD =  0.02969   =>   CDf =  0.00865    CDp =  0.02104

 Side 1  free  transition at x/c =  0.5367   47
 Side 2 forced transition at x/c =  1.0012   72

 137   rms: 0.3645E-01   max: -.3059E+00   C at   47  1
       a =  0.000      CL =  0.4597
      Cm = -0.0686     CD =  0.02996   =>   CDf =  0.00867    CDp =  0.02129

 Side 1  free  transition at x/c =  0.5346   47
 Side 2 forced transition at x/c =  1.0012   72

 138   rms: 0.4445E-01   max: -.3232E+00   C at   47  1
       a =  0.000      CL =  0.4623
      Cm = -0.0687     CD =  0.02967   =>   CDf =  0.00865    CDp =  0.02102

 Side 1  free  transition at x/c =  0.5368   47
 Side 2 forced transition at x/c =  1.0012   72

 139   rms: 0.3601E-01   max: -.3046E+00   C at   47  1
       a =  0.000      CL =  0.4596
      Cm = -0.0686     CD =  0.02998   =>   CDf =  0.00867    CDp =  0.02131

 Side 1  free  transition at x/c =  0.5344   47
 Side 2 forced transition at x/c =  1.0012   72

 140   rms: 0.4529E-01   max: -.3245E+00   C at   47  1
       a =  0.000      CL =  0.4626
      Cm = -0.0687     CD =  0.02964   =>   CDf =  0.00865    CDp =  0.02100

 Side 1  free  transition at x/c =  0.5369   48
 Side 2 forced transition at x/c =  1.0012   72

 141   rms: 0.3443E-01   max: -.2825E+00   C at   48  1
       a =  0.000      CL =  0.4588
      Cm = -0.0686     CD =  0.03005   =>   CDf =  0.00867    CDp =  0.02138

 Side 1  free  transition at x/c =  0.5362   47
 Side 2 forced transition at x/c =  1.0012   72

 142   rms: 0.7104E-02   max: -.5463E-01   C at   47  1
       a =  0.000      CL =  0.4582
      Cm = -0.0686     CD =  0.03011   =>   CDf =  0.00863    CDp =  0.02148

 Side 1  free  transition at x/c =  0.5347   47
 Side 2 forced transition at x/c =  1.0012   72

 143   rms: 0.4442E-01   max: -.3167E+00   C at   47  1
       a =  0.000      CL =  0.4618
      Cm = -0.0687     CD =  0.02971   =>   CDf =  0.00864    CDp =  0.02107

 Side 1  free  transition at x/c =  0.5365   47
 Side 2 forced transition at x/c =  1.0012   72

 144   rms: 0.3683E-01   max: -.3068E+00   C at   47  1
       a =  0.000      CL =  0.4599
      Cm = -0.0686     CD =  0.02994   =>   CDf =  0.00867    CDp =  0.02127

 Side 1  free  transition at x/c =  0.5348   47
 Side 2 forced transition at x/c =  1.0012   72

 145   rms: 0.4378E-01   max: -.3220E+00   C at   47  1
       a =  0.000      CL =  0.4621
      Cm = -0.0687     CD =  0.02969   =>   CDf =  0.00865    CDp =  0.02104

 Side 1  free  transition at x/c =  0.5367   47
 Side 2 forced transition at x/c =  1.0012   72

 146   rms: 0.3646E-01   max: -.3059E+00   C at   47  1
       a =  0.000      CL =  0.4598
      Cm = -0.0686     CD =  0.02996   =>   CDf =  0.00867    CDp =  0.02129

 Side 1  free  transition at x/c =  0.5346   47
 Side 2 forced transition at x/c =  1.0012   72

 147   rms: 0.4444E-01   max: -.3232E+00   C at   47  1
       a =  0.000      CL =  0.4623
      Cm = -0.0687     CD =  0.02967   =>   CDf =  0.00865    CDp =  0.02102

 Side 1  free  transition at x/c =  0.5368   47
 Side 2 forced transition at x/c =  1.0012   72

 148   rms: 0.3601E-01   max: -.3046E+00   C at   47  1
       a =  0.000      CL =  0.4596
      Cm = -0.0686     CD =  0.02998   =>   CDf =  0.00867    CDp =  0.02131

 Side 1  free  transition at x/c =  0.5344   47
 Side 2 forced transition at x/c =  1.0012   72

 149   rms: 0.4529E-01   max: -.3245E+00   C at   47  1
       a =  0.000      CL =  0.4626
      Cm = -0.0687     CD =  0.02964   =>   CDf =  0.00865    CDp =  0.02100

 Side 1  free  transition at x/c =  0.5369   48
 Side 2 forced transition at x/c =  1.0012   72

 150   rms: 0.3443E-01   max: -.2824E+00   C at   48  1
       a =  0.000      CL =  0.4588
      Cm = -0.0686     CD =  0.03005   =>   CDf =  0.00867    CDp =  0.02138

 Side 1  free  transition at x/c =  0.5362   47
 Side 2 forced transition at x/c =  1.0012   72

 151   rms: 0.7104E-02   max: -.5463E-01   C at   47  1
       a =  0.000      CL =  0.4582
      Cm = -0.0686     CD =  0.03011   =>   CDf =  0.00863    CDp =  0.02148

 Side 1  free  transition at x/c =  0.5347   47
 Side 2 forced transition at x/c =  1.0012   72

 152   rms: 0.4442E-01   max: -.3167E+00   C at   47  1
       a =  0.000      CL =  0.4618
      Cm = -0.0687     CD =  0.02971   =>   CDf =  0.00864    CDp =  0.02107

 Side 1  free  transition at x/c =  0.5365   47
 Side 2 forced transition at x/c =  1.0012   72

 153   rms: 0.3683E-01   max: -.3068E+00   C at   47  1
       a =  0.000      CL =  0.4599
      Cm = -0.0686     CD =  0.02994   =>   CDf =  0.00867    CDp =  0.02127

 Side 1  free  transition at x/c =  0.5348   47
 Side 2 forced transition at x/c =  1.0012   72

 154   rms: 0.4378E-01   max: -.3220E+00   C at   47  1
       a =  0.000      CL =  0.4621
      Cm = -0.0687     CD =  0.02969   =>   CDf =  0.00865    CDp =  0.02104

 Side 1  free  transition at x/c =  0.5367   47
 Side 2 forced transition at x/c =  1.0012   72

 155   rms: 0.3646E-01   max: -.3059E+00   C at   47  1
       a =  0.000      CL =  0.4598
      Cm = -0.0686     CD =  0.02996   =>   CDf =  0.00867    CDp =  0.02129

 Side 1  free  transition at x/c =  0.5346   47
 Side 2 forced transition at x/c =  1.0012   72

 156   rms: 0.4444E-01   max: -.3232E+00   C at   47  1
       a =  0.000      CL =  0.4623
      Cm = -0.0687     CD =  0.02967   =>   CDf =  0.00865    CDp =  0.02102

 Side 1  free  transition at x/c =  0.5368   47
 Side 2 forced transition at x/c =  1.0012   72

 157   rms: 0.3602E-01   max: -.3046E+00   C at   47  1
       a =  0.000      CL =  0.4596
      Cm = -0.0686     CD =  0.02998   =>   CDf =  0.00867    CDp =  0.02131

 Side 1  free  transition at x/c =  0.5344   47
 Side 2 forced transition at x/c =  1.0012   72

 158   rms: 0.4528E-01   max: -.3245E+00   C at   47  1
       a =  0.000      CL =  0.4626
      Cm = -0.0687     CD =  0.02964   =>   CDf =  0.00865    CDp =  0.02100

 Side 1  free  transition at x/c =  0.5369   48
 Side 2 forced transition at x/c =  1.0012   72

 159   rms: 0.3443E-01   max: -.2825E+00   C at   48  1
       a =  0.000      CL =  0.4588
      Cm = -0.0686     CD =  0.03005   =>   CDf =  0.00867    CDp =  0.02138

 Side 1  free  transition at x/c =  0.5362   47
 Side 2 forced transition at x/c =  1.0012   72

 160   rms: 0.7101E-02   max: -.5460E-01   C at   47  1
       a =  0.000      CL =  0.4582
      Cm = -0.0686     CD =  0.03011   =>   CDf =  0.00863    CDp =  0.02148

 Side 1  free  transition at x/c =  0.5347   47
 Side 2 forced transition at x/c =  1.0012   72

 161   rms: 0.4442E-01   max: -.3167E+00   C at   47  1
       a =  0.000      CL =  0.4618
      Cm = -0.0687     CD =  0.02971   =>   CDf =  0.00864    CDp =  0.02107

 Side 1  free  transition at x/c =  0.5365   47
 Side 2 forced transition at x/c =  1.0012   72

 162   rms: 0.3683E-01   max: -.3068E+00   C at   47  1
       a =  0.000      CL =  0.4599
      Cm = -0.0686     CD =  0.02994   =>   CDf =  0.00867    CDp =  0.02127

 Side 1  free  transition at x/c =  0.5348   47
 Side 2 forced transition at x/c =  1.0012   72

 163   rms: 0.4378E-01   max: -.3220E+00   C at   47  1
       a =  0.000      CL =  0.4621
      Cm = -0.0687     CD =  0.02969   =>   CDf =  0.00865    CDp =  0.02104

 Side 1  free  transition at x/c =  0.5367   47
 Side 2 forced transition at x/c =  1.0012   72

 164   rms: 0.3645E-01   max: -.3059E+00   C at   47  1
       a =  0.000      CL =  0.4597
      Cm = -0.0686     CD =  0.02996   =>   CDf =  0.00867    CDp =  0.02129

 Side 1  free  transition at x/c =  0.5346   47
 Side 2 forced transition at x/c =  1.0012   72

 165   rms: 0.4445E-01   max: -.3232E+00   C at   47  1
       a =  0.000      CL =  0.4623
      Cm = -0.0687     CD =  0.02967   =>   CDf =  0.00865    CDp =  0.02102

 Side 1  free  transition at x/c =  0.5368   47
 Side 2 forced transition at x/c =  1.0012   72

 166   rms: 0.3601E-01   max: -.3046E+00   C at   47  1
       a =  0.000      CL =  0.4596
      Cm = -0.0686     CD =  0.02998   =>   CDf =  0.00867    CDp =  0.02131

 Side 1  free  transition at x/c =  0.5344   47
 Side 2 forced transition at x/c =  1.0012   72

 167   rms: 0.4529E-01   max: -.3245E+00   C at   47  1
       a =  0.000      CL =  0.4626
      Cm = -0.0687     CD =  0.02964   =>   CDf =  0.00865    CDp =  0.02100

 Side 1  free  transition at x/c =  0.5370   48
 Side 2 forced transition at x/c =  1.0012   72

 168   rms: 0.3413E-01   max: -.2802E+00   C at   48  1
       a =  0.000      CL =  0.4588
      Cm = -0.0686     CD =  0.03005   =>   CDf =  0.00867    CDp =  0.02138

 Side 1  free  transition at x/c =  0.5362   47
 Side 2 forced transition at x/c =  1.0012   72

 169   rms: 0.7054E-02   max: -.5429E-01   C at   47  1
       a =  0.000      CL =  0.4583
      Cm = -0.0686     CD =  0.03011   =>   CDf =  0.00863    CDp =  0.02148

 Side 1  free  transition at x/c =  0.5347   47
 Side 2 forced transition at x/c =  1.0012   72

 170   rms: 0.4441E-01   max: -.3167E+00   C at   47  1
       a =  0.000      CL =  0.4618
      Cm = -0.0687     CD =  0.02971   =>   CDf =  0.00864    CDp =  0.02107

 Side 1  free  transition at x/c =  0.5365   47
 Side 2 forced transition at x/c =  1.0012   72

 171   rms: 0.3683E-01   max: -.3068E+00   C at   47  1
       a =  0.000      CL =  0.4599
      Cm = -0.0686     CD =  0.02994   =>   CDf =  0.00867    CDp =  0.02127

 Side 1  free  transition at x/c =  0.5348   47
 Side 2 forced transition at x/c =  1.0012   72

 172   rms: 0.4378E-01   max: -.3220E+00   C at   47  1
       a =  0.000      CL =  0.4621
      Cm = -0.0687     CD =  0.02969   =>   CDf =  0.00865    CDp =  0.02104

 Side 1  free  transition at x/c =  0.5367   47
 Side 2 forced transition at x/c =  1.0012   72

 173   rms: 0.3645E-01   max: -.3059E+00   C at   47  1
       a =  0.000      CL =  0.4598
      Cm = -0.0686     CD =  0.02996   =>   CDf =  0.00867    CDp =  0.02129

 Side 1  free  transition at x/c =  0.5346   47
 Side 2 forced transition at x/c =  1.0012   72

 174   rms: 0.4444E-01   max: -.3232E+00   C at   47  1
       a =  0.000      CL =  0.4623
      Cm = -0.0687     CD =  0.02967   =>   CDf =  0.00865    CDp =  0.02102

 Side 1  free  transition at x/c =  0.5368   47
 Side 2 forced transition at x/c =  1.0012   72

 175   rms: 0.3602E-01   max: -.3046E+00   C at   47  1
       a =  0.000      CL =  0.4596
      Cm = -0.0686     CD =  0.02998   =>   CDf =  0.00867    CDp =  0.02131

 Side 1  free  transition at x/c =  0.5344   47
 Side 2 forced transition at x/c =  1.0012   72

 176   rms: 0.4529E-01   max: -.3245E+00   C at   47  1
       a =  0.000      CL =  0.4626
      Cm = -0.0687     CD =  0.02964   =>   CDf =  0.00865    CDp =  0.02100

 Side 1  free  transition at x/c =  0.5369   48
 Side 2 forced transition at x/c =  1.0012   72

 177   rms: 0.3443E-01   max: -.2824E+00   C at   48  1
       a =  0.000      CL =  0.4588
      Cm = -0.0686     CD =  0.03005   =>   CDf =  0.00867    CDp =  0.02138

 Side 1  free  transition at x/c =  0.5362   47
 Side 2 forced transition at x/c =  1.0012   72

 178   rms: 0.7106E-02   max: -.5465E-01   C at   47  1
       a =  0.000      CL =  0.4582
      Cm = -0.0686     CD =  0.03011   =>   CDf =  0.00863    CDp =  0.02148

 Side 1  free  transition at x/c =  0.5347   47
 Side 2 forced transition at x/c =  1.0012   72

 179   rms: 0.4442E-01   max: -.3167E+00   C at   47  1
       a =  0.000      CL =  0.4618
      Cm = -0.0687     CD =  0.02971   =>   CDf =  0.00864    CDp =  0.02107

 Side 1  free  transition at x/c =  0.5365   47
 Side 2 forced transition at x/c =  1.0012   72

 180   rms: 0.3683E-01   max: -.3068E+00   C at   47  1
       a =  0.000      CL =  0.4599
      Cm = -0.0686     CD =  0.02994   =>   CDf =  0.00867    CDp =  0.02127

 Side 1  free  transition at x/c =  0.5348   47
 Side 2 forced transition at x/c =  1.0012   72

 181   rms: 0.4378E-01   max: -.3220E+00   C at   47  1
       a =  0.000      CL =  0.4621
      Cm = -0.0687     CD =  0.02969   =>   CDf =  0.00865    CDp =  0.02104

 Side 1  free  transition at x/c =  0.5367   47
 Side 2 forced transition at x/c =  1.0012   72

 182   rms: 0.3645E-01   max: -.3059E+00   C at   47  1
       a =  0.000      CL =  0.4597
      Cm = -0.0686     CD =  0.02996   =>   CDf =  0.00867    CDp =  0.02129

 Side 1  free  transition at x/c =  0.5346   47
 Side 2 forced transition at x/c =  1.0012   72

 183   rms: 0.4445E-01   max: -.3232E+00   C at   47  1
       a =  0.000      CL =  0.4623
      Cm = -0.0687     CD =  0.02967   =>   CDf =  0.00865    CDp =  0.02102

 Side 1  free  transition at x/c =  0.5368   47
 Side 2 forced transition at x/c =  1.0012   72

 184   rms: 0.3601E-01   max: -.3046E+00   C at   47  1
       a =  0.000      CL =  0.4596
      Cm = -0.0686     CD =  0.02998   =>   CDf =  0.00867    CDp =  0.02131

 Side 1  free  transition at x/c =  0.5344   47
 Side 2 forced transition at x/c =  1.0012   72

 185   rms: 0.4530E-01   max: -.3245E+00   C at   47  1
       a =  0.000      CL =  0.4626
      Cm = -0.0687     CD =  0.02964   =>   CDf =  0.00865    CDp =  0.02100

 Side 1  free  transition at x/c =  0.5370   48
 Side 2 forced transition at x/c =  1.0012   72

 186   rms: 0.3412E-01   max: -.2801E+00   C at   48  1
       a =  0.000      CL =  0.4588
      Cm = -0.0686     CD =  0.03005   =>   CDf =  0.00867    CDp =  0.02138

 Side 1  free  transition at x/c =  0.5362   47
 Side 2 forced transition at x/c =  1.0012   72

 187   rms: 0.7055E-02   max: -.5430E-01   C at   47  1
       a =  0.000      CL =  0.4583
      Cm = -0.0686     CD =  0.03011   =>   CDf =  0.00863    CDp =  0.02148

 Side 1  free  transition at x/c =  0.5347   47
 Side 2 forced transition at x/c =  1.0012   72

 188   rms: 0.4441E-01   max: -.3167E+00   C at   47  1
       a =  0.000      CL =  0.4618
      Cm = -0.0687     CD =  0.02971   =>   CDf =  0.00864    CDp =  0.02107

 Side 1  free  transition at x/c =  0.5365   47
 Side 2 forced transition at x/c =  1.0012   72

 189   rms: 0.3683E-01   max: -.3068E+00   C at   47  1
       a =  0.000      CL =  0.4599
      Cm = -0.0686     CD =  0.02994   =>   CDf =  0.00867    CDp =  0.02127

 Side 1  free  transition at x/c =  0.5348   47
 Side 2 forced transition at x/c =  1.0012   72

 190   rms: 0.4378E-01   max: -.3220E+00   C at   47  1
       a =  0.000      CL =  0.4621
      Cm = -0.0687     CD =  0.02969   =>   CDf =  0.00865    CDp =  0.02104

 Side 1  free  transition at x/c =  0.5367   47
 Side 2 forced transition at x/c =  1.0012   72

 191   rms: 0.3645E-01   max: -.3059E+00   C at   47  1
       a =  0.000      CL =  0.4597
      Cm = -0.0686     CD =  0.02996   =>   CDf =  0.00867    CDp =  0.02129

 Side 1  free  transition at x/c =  0.5346   47
 Side 2 forced transition at x/c =  1.0012   72

 192   rms: 0.4445E-01   max: -.3232E+00   C at   47  1
       a =  0.000      CL =  0.4623
      Cm = -0.0687     CD =  0.02967   =>   CDf =  0.00865    CDp =  0.02102

 Side 1  free  transition at x/c =  0.5368   47
 Side 2 forced transition at x/c =  1.0012   72

 193   rms: 0.3601E-01   max: -.3046E+00   C at   47  1
       a =  0.000      CL =  0.4596
      Cm = -0.0686     CD =  0.02998   =>   CDf =  0.00867    CDp =  0.02131

 Side 1  free  transition at x/c =  0.5344   47
 Side 2 forced transition at x/c =  1.0012   72

 194   rms: 0.4530E-01   max: -.3245E+00   C at   47  1
       a =  0.000      CL =  0.4626
      Cm = -0.0687     CD =  0.02964   =>   CDf =  0.00865    CDp =  0.02100

 Side 1  free  transition at x/c =  0.5370   48
 Side 2 forced transition at x/c =  1.0012   72

 195   rms: 0.3412E-01   max: -.2802E+00   C at   48  1
       a =  0.000      CL =  0.4588
      Cm = -0.0686     CD =  0.03005   =>   CDf =  0.00867    CDp =  0.02138

 Side 1  free  transition at x/c =  0.5362   47
 Side 2 forced transition at x/c =  1.0012   72

 196   rms: 0.7059E-02   max: -.5433E-01   C at   47  1
       a =  0.000      CL =  0.4583
      Cm = -0.0686     CD =  0.03011   =>   CDf =  0.00863    CDp =  0.02148

 Side 1  free  transition at x/c =  0.5347   47
 Side 2 forced transition at x/c =  1.0012   72

 197   rms: 0.4441E-01   max: -.3167E+00   C at   47  1
       a =  0.000      CL =  0.4618
      Cm = -0.0687     CD =  0.02971   =>   CDf =  0.00864    CDp =  0.02107

 Side 1  free  transition at x/c =  0.5365   47
 Side 2 forced transition at x/c =  1.0012   72

 198   rms: 0.3683E-01   max: -.3068E+00   C at   47  1
       a =  0.000      CL =  0.4599
      Cm = -0.0686     CD =  0.02994   =>   CDf =  0.00867    CDp =  0.02127

 Side 1  free  transition at x/c =  0.5348   47
 Side 2 forced transition at x/c =  1.0012   72

 199   rms: 0.4378E-01   max: -.3220E+00   C at   47  1
       a =  0.000      CL =  0.4621
      Cm = -0.0687     CD =  0.02969   =>   CDf =  0.00865    CDp =  0.02104

 Side 1  free  transition at x/c =  0.5367   47
 Side 2 forced transition at x/c =  1.0012   72

 200   rms: 0.3645E-01   max: -.3059E+00   C at   47  1
       a =  0.000      CL =  0.4597
      Cm = -0.0686     CD =  0.02996   =>   CDf =  0.00867    CDp =  0.02129

 Side 1  free  transition at x/c =  0.5346   47
 Side 2 forced transition at x/c =  1.0012   72

 201   rms: 0.4445E-01   max: -.3232E+00   C at   47  1
       a =  0.000      CL =  0.4623
      Cm = -0.0687     CD =  0.02967   =>   CDf =  0.00865    CDp =  0.02102

 Side 1  free  transition at x/c =  0.5368   47
 Side 2 forced transition at x/c =  1.0012   72

 202   rms: 0.3601E-01   max: -.3046E+00   C at   47  1
       a =  0.000      CL =  0.4596
      Cm = -0.0686     CD =  0.02998   =>   CDf =  0.00867    CDp =  0.02131

 Side 1  free  transition at x/c =  0.5344   47
 Side 2 forced transition at x/c =  1.0012   72

 203   rms: 0.4528E-01   max: -.3245E+00   C at   47  1
       a =  0.000      CL =  0.4626
      Cm = -0.0687     CD =  0.02964   =>   CDf =  0.00865    CDp =  0.02100

 Side 1  free  transition at x/c =  0.5369   48
 Side 2 forced transition at x/c =  1.0012   72

 204   rms: 0.3443E-01   max: -.2824E+00   C at   48  1
       a =  0.000      CL =  0.4588
      Cm = -0.0686     CD =  0.03005   =>   CDf =  0.00867    CDp =  0.02138

 Side 1  free  transition at x/c =  0.5362   47
 Side 2 forced transition at x/c =  1.0012   72

 205   rms: 0.7103E-02   max: -.5462E-01   C at   47  1
       a =  0.000      CL =  0.4582
      Cm = -0.0686     CD =  0.03011   =>   CDf =  0.00863    CDp =  0.02148

 Side 1  free  transition at x/c =  0.5347   47
 Side 2 forced transition at x/c =  1.0012   72

 206   rms: 0.4442E-01   max: -.3167E+00   C at   47  1
       a =  0.000      CL =  0.4618
      Cm = -0.0687     CD =  0.02971   =>   CDf =  0.00864    CDp =  0.02107

 Side 1  free  transition at x/c =  0.5365   47
 Side 2 forced transition at x/c =  1.0012   72

 207   rms: 0.3683E-01   max: -.3068E+00   C at   47  1
       a =  0.000      CL =  0.4599
      Cm = -0.0686     CD =  0.02994   =>   CDf =  0.00867    CDp =  0.02127

 Side 1  free  transition at x/c =  0.5348   47
 Side 2 forced transition at x/c =  1.0012   72

 208   rms: 0.4378E-01   max: -.3220E+00   C at   47  1
       a =  0.000      CL =  0.4621
      Cm = -0.0687     CD =  0.02969   =>   CDf =  0.00865    CDp =  0.02104

 Side 1  free  transition at x/c =  0.5367   47
 Side 2 forced transition at x/c =  1.0012   72

 209   rms: 0.3645E-01   max: -.3059E+00   C at   47  1
       a =  0.000      CL =  0.4598
      Cm = -0.0686     CD =  0.02996   =>   CDf =  0.00867    CDp =  0.02129

 Side 1  free  transition at x/c =  0.5346   47
 Side 2 forced transition at x/c =  1.0012   72

 210   rms: 0.4444E-01   max: -.3232E+00   C at   47  1
       a =  0.000      CL =  0.4623
      Cm = -0.0687     CD =  0.02967   =>   CDf =  0.00865    CDp =  0.02102

 Side 1  free  transition at x/c =  0.5368   47
 Side 2 forced transition at x/c =  1.0012   72

 211   rms: 0.3601E-01   max: -.3046E+00   C at   47  1
       a =  0.000      CL =  0.4596
      Cm = -0.0686     CD =  0.02998   =>   CDf =  0.00867    CDp =  0.02131

 Side 1  free  transition at x/c =  0.5344   47
 Side 2 forced transition at x/c =  1.0012   72

 212   rms: 0.4529E-01   max: -.3245E+00   C at   47  1
       a =  0.000      CL =  0.4626
      Cm = -0.0687     CD =  0.02964   =>   CDf =  0.00865    CDp =  0.02100

 Side 1  free  transition at x/c =  0.5369   48
 Side 2 forced transition at x/c =  1.0012   72

 213   rms: 0.3442E-01   max: -.2824E+00   C at   48  1
       a =  0.000      CL =  0.4587
      Cm = -0.0686     CD =  0.03005   =>   CDf =  0.00867    CDp =  0.02138

 Side 1  free  transition at x/c =  0.5362   47
 Side 2 forced transition at x/c =  1.0012   72

 214   rms: 0.7100E-02   max: -.5458E-01   C at   47  1
       a =  0.000      CL =  0.4582
      Cm = -0.0686     CD =  0.03011   =>   CDf =  0.00863    CDp =  0.02148

 Side 1  free  transition at x/c =  0.5347   47
 Side 2 forced transition at x/c =  1.0012   72

 215   rms: 0.4442E-01   max: -.3167E+00   C at   47  1
       a =  0.000      CL =  0.4618
      Cm = -0.0687     CD =  0.02971   =>   CDf =  0.00864    CDp =  0.02107

 Side 1  free  transition at x/c =  0.5365   47
 Side 2 forced transition at x/c =  1.0012   72

 216   rms: 0.3683E-01   max: -.3068E+00   C at   47  1
       a =  0.000      CL =  0.4599
      Cm = -0.0686     CD =  0.02994   =>   CDf =  0.00867    CDp =  0.02127

 Side 1  free  transition at x/c =  0.5348   47
 Side 2 forced transition at x/c =  1.0012   72

 217   rms: 0.4378E-01   max: -.3220E+00   C at   47  1
       a =  0.000      CL =  0.4621
      Cm = -0.0687     CD =  0.02969   =>   CDf =  0.00865    CDp =  0.02104

 Side 1  free  transition at x/c =  0.5367   47
 Side 2 forced transition at x/c =  1.0012   72

 218   rms: 0.3646E-01   max: -.3059E+00   C at   47  1
       a =  0.000      CL =  0.4597
      Cm = -0.0686     CD =  0.02996   =>   CDf =  0.00867    CDp =  0.02129

 Side 1  free  transition at x/c =  0.5346   47
 Side 2 forced transition at x/c =  1.0012   72

 219   rms: 0.4444E-01   max: -.3232E+00   C at   47  1
       a =  0.000      CL =  0.4623
      Cm = -0.0687     CD =  0.02967   =>   CDf =  0.00865    CDp =  0.02102

 Side 1  free  transition at x/c =  0.5368   47
 Side 2 forced transition at x/c =  1.0012   72

 220   rms: 0.3602E-01   max: -.3046E+00   C at   47  1
       a =  0.000      CL =  0.4596
      Cm = -0.0686     CD =  0.02998   =>   CDf =  0.00867    CDp =  0.02131

 Side 1  free  transition at x/c =  0.5344   47
 Side 2 forced transition at x/c =  1.0012   72

 221   rms: 0.4528E-01   max: -.3245E+00   C at   47  1
       a =  0.000      CL =  0.4626
      Cm = -0.0687     CD =  0.02964   =>   CDf =  0.00865    CDp =  0.02100

 Side 1  free  transition at x/c =  0.5369   48
 Side 2 forced transition at x/c =  1.0012   72

 222   rms: 0.3444E-01   max: -.2825E+00   C at   48  1
       a =  0.000      CL =  0.4587
      Cm = -0.0686     CD =  0.03005   =>   CDf =  0.00867    CDp =  0.02138

 Side 1  free  transition at x/c =  0.5362   47
 Side 2 forced transition at x/c =  1.0012   72

 223   rms: 0.7103E-02   max: -.5461E-01   C at   47  1
       a =  0.000      CL =  0.4582
      Cm = -0.0686     CD =  0.03011   =>   CDf =  0.00863    CDp =  0.02148

 Side 1  free  transition at x/c =  0.5347   47
 Side 2 forced transition at x/c =  1.0012   72

 224   rms: 0.4442E-01   max: -.3167E+00   C at   47  1
       a =  0.000      CL =  0.4618
      Cm = -0.0687     CD =  0.02971   =>   CDf =  0.00864    CDp =  0.02107

 Side 1  free  transition at x/c =  0.5365   47
 Side 2 forced transition at x/c =  1.0012   72

 225   rms: 0.3683E-01   max: -.3068E+00   C at   47  1
       a =  0.000      CL =  0.4599
      Cm = -0.0686     CD =  0.02994   =>   CDf =  0.00867    CDp =  0.02127

 Side 1  free  transition at x/c =  0.5348   47
 Side 2 forced transition at x/c =  1.0012   72

 226   rms: 0.4378E-01   max: -.3220E+00   C at   47  1
       a =  0.000      CL =  0.4621
      Cm = -0.0687     CD =  0.02969   =>   CDf =  0.00865    CDp =  0.02104

 Side 1  free  transition at x/c =  0.5367   47
 Side 2 forced transition at x/c =  1.0012   72

 227   rms: 0.3646E-01   max: -.3059E+00   C at   47  1
       a =  0.000      CL =  0.4597
      Cm = -0.0686     CD =  0.02996   =>   CDf =  0.00867    CDp =  0.02129

 Side 1  free  transition at x/c =  0.5346   47
 Side 2 forced transition at x/c =  1.0012   72

 228   rms: 0.4445E-01   max: -.3232E+00   C at   47  1
       a =  0.000      CL =  0.4623
      Cm = -0.0687     CD =  0.02967   =>   CDf =  0.00865    CDp =  0.02102

 Side 1  free  transition at x/c =  0.5368   47
 Side 2 forced transition at x/c =  1.0012   72

 229   rms: 0.3602E-01   max: -.3046E+00   C at   47  1
       a =  0.000      CL =  0.4596
      Cm = -0.0686     CD =  0.02998   =>   CDf =  0.00867    CDp =  0.02131

 Side 1  free  transition at x/c =  0.5344   47
 Side 2 forced transition at x/c =  1.0012   72

 230   rms: 0.4528E-01   max: -.3245E+00   C at   47  1
       a =  0.000      CL =  0.4626
      Cm = -0.0687     CD =  0.02964   =>   CDf =  0.00865    CDp =  0.02100

 Side 1  free  transition at x/c =  0.5369   48
 Side 2 forced transition at x/c =  1.0012   72

 231   rms: 0.3444E-01   max: -.2825E+00   C at   48  1
       a =  0.000      CL =  0.4588
      Cm = -0.0686     CD =  0.03005   =>   CDf =  0.00867    CDp =  0.02138

 Side 1  free  transition at x/c =  0.5362   47
 Side 2 forced transition at x/c =  1.0012   72

 232   rms: 0.7105E-02   max: -.5465E-01   C at   47  1
       a =  0.000      CL =  0.4582
      Cm = -0.0686     CD =  0.03011   =>   CDf =  0.00863    CDp =  0.02148

 Side 1  free  transition at x/c =  0.5347   47
 Side 2 forced transition at x/c =  1.0012   72

 233   rms: 0.4442E-01   max: -.3167E+00   C at   47  1
       a =  0.000      CL =  0.4618
      Cm = -0.0687     CD =  0.02971   =>   CDf =  0.00864    CDp =  0.02107

 Side 1  free  transition at x/c =  0.5365   47
 Side 2 forced transition at x/c =  1.0012   72

 234   rms: 0.3683E-01   max: -.3068E+00   C at   47  1
       a =  0.000      CL =  0.4599
      Cm = -0.0686     CD =  0.02994   =>   CDf =  0.00867    CDp =  0.02127

 Side 1  free  transition at x/c =  0.5348   47
 Side 2 forced transition at x/c =  1.0012   72

 235   rms: 0.4378E-01   max: -.3220E+00   C at   47  1
       a =  0.000      CL =  0.4621
      Cm = -0.0687     CD =  0.02969   =>   CDf =  0.00865    CDp =  0.02104

 Side 1  free  transition at x/c =  0.5367   47
 Side 2 forced transition at x/c =  1.0012   72

 236   rms: 0.3646E-01   max: -.3059E+00   C at   47  1
       a =  0.000      CL =  0.4598
      Cm = -0.0686     CD =  0.02996   =>   CDf =  0.00867    CDp =  0.02129

 Side 1  free  transition at x/c =  0.5346   47
 Side 2 forced transition at x/c =  1.0012   72

 237   rms: 0.4443E-01   max: -.3231E+00   C at   47  1
       a =  0.000      CL =  0.4623
      Cm = -0.0687     CD =  0.02967   =>   CDf =  0.00865    CDp =  0.02102

 Side 1  free  transition at x/c =  0.5368   47
 Side 2 forced transition at x/c =  1.0012   72

 238   rms: 0.3602E-01   max: -.3046E+00   C at   47  1
       a =  0.000      CL =  0.4596
      Cm = -0.0686     CD =  0.02998   =>   CDf =  0.00867    CDp =  0.02131

 Side 1  free  transition at x/c =  0.5344   47
 Side 2 forced transition at x/c =  1.0012   72

 239   rms: 0.4528E-01   max: -.3245E+00   C at   47  1
       a =  0.000      CL =  0.4626
      Cm = -0.0687     CD =  0.02964   =>   CDf =  0.00865    CDp =  0.02100

 Side 1  free  transition at x/c =  0.5369   48
[...]
       a = -9.000      CL = -0.3954
      Cm = -0.0086     CD =  0.15995   =>   CDf =  0.00530    CDp =  0.15464

 Side 1 forced transition at x/c =  0.9988   83
 Side 2  free  transition at x/c =  0.2005   39

   5   rms: 0.3500E+00   max: -.3508E+01   T at    2  2   RLX: 0.143
       a = -9.000      CL = -0.3806
      Cm = -0.0066     CD =  0.15716   =>   CDf =  0.00541    CDp =  0.15175

 Side 1 forced transition at x/c =  0.9988   84
 Side 2  free  transition at x/c =  0.2017   38
 idif Ue xi dudx           1  0.16646078      3.96800041E-03   41.950798    
 Uenew xinew           2  3.72568890E-03  8.88109207E-05

   6   rms: 0.1149E+01   max: 0.2038E+02   T at    2  1   RLX: 0.063
       a = -9.000      CL = -0.3940
      Cm = -0.0043     CD =  0.16174   =>   CDf =  0.00530    CDp =  0.15644

 Side 1 forced transition at x/c =  0.9988   83
 Side 2  free  transition at x/c =  0.2013   39

   7   rms: 0.7587E+01   max: 0.1336E+03   T at    2  2   RLX: 0.009
       a = -9.000      CL = -0.3959
      Cm = -0.0043     CD =  0.16306   =>   CDf =  0.00529    CDp =  0.15777

 Side 1 forced transition at x/c =  0.9988   83
 Side 2  free  transition at x/c =  0.2012   39
 idif Ue xi dudx           1  0.12360993      4.96494770E-03   24.896523    
 Uenew xinew           2  1.78697072E-02  7.17759132E-04

   8   rms: 0.4076E+00   max: 0.2783E+01   T at   39  2   RLX: 0.539
       a = -9.000      CL = -0.5329
      Cm = -0.0112     CD =  0.16303   =>   CDf =  0.00526    CDp =  0.15777

 Side 1 forced transition at x/c =  0.9988   82
 Side 2  free  transition at x/c =  0.1923   39

   9   rms: 0.4227E+00   max: 0.2682E+01   T at   39  2   RLX: 0.559
       a = -9.000      CL = -0.6261
      Cm =  0.0270     CD =  0.14615   =>   CDf =  0.00533    CDp =  0.14083

 MRCHDU: Convergence failed at  80  side 2    Res =  0.1134E+02
 Side 1 forced transition at x/c =  0.9988   82
 Side 2  free  transition at x/c =  0.1630   37

  10   rms: 0.2761E+00   max: 0.2980E+01   T at   38  2   RLX: 0.503
       a = -9.000      CL = -0.6140
      Cm =  0.0095     CD =  0.14297   =>   CDf =  0.00505    CDp =  0.13791

 Side 1 forced transition at x/c =  0.9988   82
 Side 2  free  transition at x/c =  0.1609   37

  11   rms: 0.1763E+00   max: 0.7368E+00   D at   80  2
       a = -9.000      CL = -0.5889
      Cm =  0.0032     CD =  0.15370   =>   CDf =  0.00515    CDp =  0.14855

 Side 1 forced transition at x/c =  0.9988   82
 Side 2  free  transition at x/c =  0.1842   39

  12   rms: 0.2426E+00   max: 0.1272E+01   D at   39  2
       a = -9.000      CL = -0.6002
      Cm =  0.0100     CD =  0.16074   =>   CDf =  0.00510    CDp =  0.15565

 Side 1 forced transition at x/c =  0.9988   82
 Side 2  free  transition at x/c =  0.1742   38

  13   rms: 0.1398E+00   max: -.7808E+00   T at   38  2   RLX: 0.640
       a = -9.000      CL = -0.5276
      Cm =  0.0005     CD =  0.13679   =>   CDf =  0.00517    CDp =  0.13162

 Side 1 forced transition at x/c =  0.9988   83
 Side 2  free  transition at x/c =  0.1747   37

  14   rms: 0.9450E-01   max: -.7857E+00   T at    2  1   RLX: 0.636
       a = -9.000      CL = -0.4900
      Cm = -0.0029     CD =  0.13781   =>   CDf =  0.00510    CDp =  0.13271

 Side 1 forced transition at x/c =  0.9988   83
 Side 2  free  transition at x/c =  0.1789   37
 idif Ue xi dudx           1  0.12888920      5.02359867E-03   25.656748    
 Uenew xinew           2  1.99201591E-02  7.76410103E-04

  15   rms: 0.8679E-01   max: -.2675E+00   D at   37  2
       a = -9.000      CL = -0.5511
      Cm = -0.0088     CD =  0.14793   =>   CDf =  0.00511    CDp =  0.14282

 Side 1 forced transition at x/c =  0.9988   82
 Side 2  free  transition at x/c =  0.1917   39
 idif Ue xi dudx           1  9.87452418E-02  4.83548641E-03   20.420954    
 Uenew xinew           2  2.12276843E-03  1.03950500E-04

  16   rms: 0.6340E+00   max: 0.2804E+01   T at   39  2   RLX: 0.535
       a = -9.000      CL = -0.6818
      Cm = -0.0032     CD =  0.11613   =>   CDf =  0.00643    CDp =  0.10970

 MRCHDU: Convergence failed at  57  side 2    Res =  0.3864E+01
 MRCHDU: Convergence failed at  58  side 2    Res =  0.7880E+01
 MRCHDU: Convergence failed at  59  side 2    Res =  0.3677E+01
 MRCHDU: Convergence failed at  60  side 2    Res =  0.2871E+01
 MRCHDU: Convergence failed at  61  side 2    Res =  0.2580E+01
 MRCHDU: Convergence failed at  62  side 2    Res =  0.2430E+01
 MRCHDU: Convergence failed at  63  side 2    Res =  0.2288E+01
 MRCHDU: Convergence failed at  64  side 2    Res =  0.2168E+01
 MRCHDU: Convergence failed at  65  side 2    Res =  0.1949E+01
 MRCHDU: Convergence failed at  66  side 2    Res =  0.1869E+01
 MRCHDU: Convergence failed at  67  side 2    Res =  0.1827E+01
 MRCHDU: Convergence failed at  68  side 2    Res =  0.1811E+01
 MRCHDU: Convergence failed at  69  side 2    Res =  0.1813E+01
 MRCHDU: Convergence failed at  70  side 2    Res =  0.2072E+01
 MRCHDU: Convergence failed at  71  side 2    Res =  0.2208E+01
 MRCHDU: Convergence failed at  72  side 2    Res =  0.2352E+01
 MRCHDU: Convergence failed at  73  side 2    Res =  0.2490E+01
 MRCHDU: Convergence failed at  74  side 2    Res =  0.2568E+01
 MRCHDU: Convergence failed at  75  side 2    Res =  0.2626E+01
 MRCHDU: Convergence failed at  76  side 2    Res =  0.2693E+01
 MRCHDU: Convergence failed at  77  side 2    Res =  0.2744E+01
 MRCHDU: Convergence failed at  78  side 2    Res =  0.2799E+01
 MRCHDU: Convergence failed at  79  side 2    Res =  0.2875E+01
 MRCHDU: Convergence failed at  80  side 2    Res =  0.3015E+01
 MRCHDU: Convergence failed at  81  side 2    Res =  0.3236E+01
 Side 1 forced transition at x/c =  0.9988   81
 Side 2  free  transition at x/c =  0.1548   38

  17   rms: 0.3133E+00   max: -.1505E+01   T at    2  2   RLX: 0.332
       a = -9.000      CL = -0.7757
      Cm =  0.0568     CD =  0.09472   =>   CDf =  0.00513    CDp =  0.08960

 Side 1 forced transition at x/c =  0.9988   82
 Side 2  free  transition at x/c =  0.1574   37
 idif Ue xi dudx           1  0.10256989      5.43761253E-03   18.863037    
 Uenew xinew           2  1.33187491E-02  7.06076622E-04

  18   rms: 0.2879E+00   max: 0.1444E+01   D at   80  2
       a = -9.000      CL = -0.8463
      Cm =  0.0733     CD =  0.14583   =>   CDf =  0.00511    CDp =  0.14071

 MRCHDU: Convergence failed at  71  side 2    Res =  0.2246E+01
 MRCHDU: Convergence failed at  72  side 2    Res =  0.4341E+01
 MRCHDU: Convergence failed at  73  side 2    Res =  0.8764E+01
 MRCHDU: Convergence failed at  74  side 2    Res =  0.2082E+02
 MRCHDU: Convergence failed at  75  side 2    Res =  0.8221E+02
 MRCHDU: Convergence failed at  76  side 2    Res =  0.4538E+02
 MRCHDU: Convergence failed at  77  side 2    Res =  0.2535E+02
 MRCHDU: Convergence failed at  78  side 2    Res =  0.1714E+02
 MRCHDU: Convergence failed at  79  side 2    Res =  0.1415E+02
 MRCHDU: Convergence failed at  80  side 2    Res =  0.1236E+02
 MRCHDU: Convergence failed at  81  side 2    Res =  0.1790E+02
 Side 1 forced transition at x/c =  0.9988   81
 Side 2  free  transition at x/c =  0.1337   36

  19   rms: 0.3134E+00   max: -.2863E+01   T at   36  2   RLX: 0.175
       a = -9.000      CL = -0.8338
      Cm =  0.0885     CD =  0.10471   =>   CDf =  0.00501    CDp =  0.09970

 Side 1 forced transition at x/c =  0.9988   82
 Side 2  free  transition at x/c =  0.1321   35

  20   rms: 0.2120E+00   max: -.8525E+00   T at   35  2   RLX: 0.586
       a = -9.000      CL = -0.5852
      Cm =  0.0258     CD =  0.12324   =>   CDf =  0.00509    CDp =  0.11815

 Side 1 forced transition at x/c =  0.9988   83
 Side 2  free  transition at x/c =  0.1333   34

  21   rms: 0.2013E+00   max: -.3185E+01   D at    2  1   RLX: 0.157
       a = -9.000      CL = -0.5648
      Cm =  0.0172     CD =  0.12825   =>   CDf =  0.00518    CDp =  0.12307

 Side 1 forced transition at x/c =  0.9988   83
 Side 2  free  transition at x/c =  0.1340   34
 idif Ue xi dudx           1  0.12973320      5.06174564E-03   25.630131    
 Uenew xinew           2  2.08772048E-02  8.14557076E-04

  22   rms: 0.1240E+00   max: 0.6479E+00   T at   35  2   RLX: 0.915
       a = -9.000      CL = -0.5307
      Cm = -0.0118     CD =  0.14374   =>   CDf =  0.00511    CDp =  0.13863

 MRCHDU: Convergence failed at  41  side 2    Res =  0.2374E+02
 MRCHDU: Convergence failed at  42  side 2    Res =  0.3779E+02
 MRCHDU: Convergence failed at  43  side 2    Res =  0.2378E+02
 MRCHDU: Convergence failed at  44  side 2    Res =  0.2155E+03
 MRCHDU: Convergence failed at  45  side 2    Res =  0.3940E+02
 MRCHDU: Convergence failed at  46  side 2    Res =  0.3062E+03
 MRCHDU: Convergence failed at  47  side 2    Res =  0.3748E+03
 MRCHDU: Convergence failed at  48  side 2    Res =  0.1591E+04
 MRCHDU: Convergence failed at  49  side 2    Res =  0.5333E+02
 MRCHDU: Convergence failed at  50  side 2    Res =  0.5414E+02
 MRCHDU: Convergence failed at  51  side 2    Res =  0.1155E+03
 MRCHDU: Convergence failed at  52  side 2    Res =  0.5455E+03
 MRCHDU: Convergence failed at  53  side 2    Res =  0.1044E+03
 MRCHDU: Convergence failed at  54  side 2    Res =  0.6483E+02
 MRCHDU: Convergence failed at  55  side 2    Res =  0.5960E+02
 MRCHDU: Convergence failed at  56  side 2    Res =  0.2332E+03
 MRCHDU: Convergence failed at  57  side 2    Res =  0.1957E+03
 MRCHDU: Convergence failed at  58  side 2    Res =  0.1747E+03
 MRCHDU: Convergence failed at  59  side 2    Res =  0.9901E+02
 MRCHDU: Convergence failed at  60  side 2    Res =  0.1541E+03
 MRCHDU: Convergence failed at  61  side 2    Res =  0.1422E+03
 MRCHDU: Convergence failed at  62  side 2    Res =  0.1353E+03
 MRCHDU: Convergence failed at  63  side 2    Res =  0.1309E+03
 MRCHDU: Convergence failed at  64  side 2    Res =  0.1254E+03
 MRCHDU: Convergence failed at  65  side 2    Res =  0.1205E+03
 MRCHDU: Convergence failed at  66  side 2    Res =  0.8753E+03
 MRCHDU: Convergence failed at  67  side 2    Res =  0.1220E+03
 MRCHDU: Convergence failed at  68  side 2    Res =  0.1220E+03
 MRCHDU: Convergence failed at  69  side 2    Res =  0.1516E+03
 MRCHDU: Convergence failed at  70  side 2    Res =  0.1622E+03
 MRCHDU: Convergence failed at  71  side 2    Res =  0.1707E+03
 MRCHDU: Convergence failed at  72  side 2    Res =  0.1764E+03
 MRCHDU: Convergence failed at  73  side 2    Res =  0.1796E+03
 MRCHDU: Convergence failed at  74  side 2    Res =  0.1820E+03
 MRCHDU: Convergence failed at  75  side 2    Res =  0.1921E+03
 MRCHDU: Convergence failed at  76  side 2    Res =  0.1908E+03
 MRCHDU: Convergence failed at  77  side 2    Res =  0.1908E+03
 MRCHDU: Convergence failed at  78  side 2    Res =  0.1885E+03
 MRCHDU: Convergence failed at  79  side 2    Res =  0.1818E+03
 MRCHDU: Convergence failed at  80  side 2    Res =  0.1380E+03
 MRCHDU: Convergence failed at  90  side 2    Res =  0.2771E-03
 Side 1 forced transition at x/c =  0.9988   82
 Side 2  free  transition at x/c =  0.2242   41

  23   rms: 0.9925E+00   max: 0.6692E+01   D at   86  2   RLX: 0.187
       a = -9.000      CL = -1.0342
      Cm =  0.2121     CD =  0.02213   =>   CDf =  0.00479    CDp =  0.01734

 MRCHDU: Convergence failed at  84  side 2    Res =  0.2551E+01
 MRCHDU: Convergence failed at  85  side 2    Res =  0.2653E+02
 MRCHDU: Convergence failed at  86  side 2    Res =  0.5600E+01
 MRCHDU: Convergence failed at  87  side 2    Res =  0.4384E+01
 MRCHDU: Convergence failed at  88  side 2    Res =  0.3204E+02
 MRCHDU: Convergence failed at  89  side 2    Res =  0.5684E+01
 MRCHDU: Convergence failed at  90  side 2    Res =  0.3103E+01
 MRCHDU: Convergence failed at  91  side 2    Res =  0.2818E+01
 MRCHDU: Convergence failed at  92  side 2    Res =  0.4856E+01
 MRCHDU: Convergence failed at  93  side 2    Res =  0.6062E+01
 MRCHDU: Convergence failed at  94  side 2    Res =  0.9152E+01
 MRCHDU: Convergence failed at  95  side 2    Res =  0.1398E+02
 MRCHDU: Convergence failed at  96  side 2    Res =  0.7954E+01
 MRCHDU: Convergence failed at  97  side 2    Res =  0.5564E+01
 MRCHDU: Convergence failed at  98  side 2    Res =  0.4027E+01
 MRCHDU: Convergence failed at  99  side 2    Res =  0.2926E+01
 MRCHDU: Convergence failed at 100  side 2    Res =  0.1832E+01
 Side 1 forced transition at x/c =  0.9988   83
 Side 2  free  transition at x/c =  0.2298   40

  24   rms: 0.1652E+01   max: -.2188E+02   D at  101  2   RLX: 0.023
       a = -9.000      CL = -0.9312
      Cm =  0.1645     CD =  0.12187   =>   CDf =  0.00517    CDp =  0.11670

 Side 1 forced transition at x/c =  0.9988   83
 Side 2  free  transition at x/c =  0.2288   40

  25   rms: 0.4287E+00   max: 0.1598E+01   D at   97  2   RLX: 0.439
       a = -9.000      CL = -0.5983
      Cm =  0.0804     CD =  0.13133   =>   CDf =  0.00549    CDp =  0.12584

 MRCHDU: Convergence failed at  96  side 2    Res =  0.2144E+02
 MRCHDU: Convergence failed at  97  side 2    Res =  0.3657E+01
 MRCHDU: Convergence failed at  98  side 2    Res =  0.3028E+01
 MRCHDU: Convergence failed at  99  side 2    Res =  0.6032E+01
 MRCHDU: Convergence failed at 100  side 2    Res =  0.7409E+01
 Side 1  free  transition at x/c =  0.9857   83
 Side 2  free  transition at x/c =  0.2311   39

  26   rms: 0.4629E+00   max: -.2950E+01   T at    2  1   RLX: 0.169
       a = -9.000      CL = -0.5175
      Cm =  0.0618     CD =  0.21190   =>   CDf =  0.00567    CDp =  0.20623

 Side 1  free  transition at x/c =  0.9902   83
 Side 2  free  transition at x/c =  0.2310   39

  27   rms: 0.3915E+00   max: -.1643E+01   T at   79  2   RLX: 0.304
       a = -9.000      CL = -0.4280
      Cm =  0.0422     CD =  0.20358   =>   CDf =  0.00553    CDp =  0.19805

 Side 1 forced transition at x/c =  0.9988   84
 Side 2  free  transition at x/c =  0.2263   39

  28   rms: 0.2720E+00   max: -.6569E+00   D at   76  2   RLX: 0.761
       a = -9.000      CL = -0.2337
      Cm = -0.0001     CD =  0.14235   =>   CDf =  0.00528    CDp =  0.13708

 Side 1 forced transition at x/c =  0.9988   84
 Side 2  free  transition at x/c =  0.2282   39

  29   rms: 0.1785E+00   max: 0.8537E+00   T at   39  2   RLX: 0.826
       a = -9.000      CL = -0.2708
      Cm = -0.0112     CD =  0.15243   =>   CDf =  0.00492    CDp =  0.14751

 Side 1 forced transition at x/c =  0.9988   84
 Side 2  free  transition at x/c =  0.2207   38

  30   rms: 0.1032E+00   max: -.4460E+00   D at   98  2
       a = -9.000      CL = -0.3359
      Cm = -0.0058     CD =  0.14726   =>   CDf =  0.00485    CDp =  0.14242

 Side 1 forced transition at x/c =  0.9988   84
 Side 2  free  transition at x/c =  0.2061   38

  31   rms: 0.3983E-01   max: 0.3956E+00   D at  100  2
       a = -9.000      CL = -0.3325
      Cm = -0.0048     CD =  0.13624   =>   CDf =  0.00486    CDp =  0.13137

 Side 1 forced transition at x/c =  0.9988   84
 Side 2  free  transition at x/c =  0.2084   38

  32   rms: 0.3514E-01   max: 0.1500E+00   T at   38  2
       a = -9.000      CL = -0.3597
      Cm = -0.0049     CD =  0.13815   =>   CDf =  0.00478    CDp =  0.13337

 Side 1 forced transition at x/c =  0.9988   84
 Side 2  free  transition at x/c =  0.2054   38

  33   rms: 0.5012E-02   max: -.2714E-01   D at   99  2
       a = -9.000      CL = -0.3586
      Cm = -0.0050     CD =  0.13819   =>   CDf =  0.00484    CDp =  0.13335

 Side 1 forced transition at x/c =  0.9988   84
 Side 2  free  transition at x/c =  0.2058   38

  34   rms: 0.1329E-02   max: 0.8961E-02   T at   38  2
       a = -9.000      CL = -0.3597
      Cm = -0.0050     CD =  0.13845   =>   CDf =  0.00482    CDp =  0.13363

 Side 1 forced transition at x/c =  0.9988   84
 Side 2  free  transition at x/c =  0.2056   38

  35   rms: 0.5972E-04   max: -.9363E-03   D at   99  2
       a = -9.000      CL = -0.3597
      Cm = -0.0049     CD =  0.13850   =>   CDf =  0.00482    CDp =  0.13367
 plradd ia,ip,cpol           10          83  3.38528742E-04

 Point added to stored polar  1
 Save file unspecified or not available
 Dump file unspecified or not available

.OPERva   c>  
.OPERva   c>  
.OPERva   c>   Calculating wake trajectory ...
 Calculating source influence matrix ...

 Solving BL system ...

 Side 1 forced transition at x/c =  0.9988   84
 Side 2  free  transition at x/c =  0.2056   38
 idif Ue xi dudx           1  0.23864445      7.75527954E-03   30.771870    
 Uenew xinew           2  0.11927453      3.87609005E-03

   1   rms: 0.1966E+00   max: 0.2230E+01   T at   38  2   RLX: 0.673
       a =-10.000      CL = -0.4183
      Cm = -0.0113     CD =  0.14805   =>   CDf =  0.00481    CDp =  0.14324

 Side 1 forced transition at x/c =  0.9988   83
 Side 2  free  transition at x/c =  0.1860   38

   2   rms: 0.1801E+00   max: 0.6375E+00   D at  101  2
       a =-10.000      CL = -0.3067
      Cm = -0.0053     CD =  0.16575   =>   CDf =  0.00481    CDp =  0.16094

 Side 1 forced transition at x/c =  0.9988   83
 Side 2  free  transition at x/c =  0.1882   38

   3   rms: 0.4614E-01   max: 0.2743E+00   T at   38  2
       a =-10.000      CL = -0.3449
      Cm = -0.0077     CD =  0.14772   =>   CDf =  0.00493    CDp =  0.14279

 Side 1 forced transition at x/c =  0.9988   83
 Side 2  free  transition at x/c =  0.1836   38

   4   rms: 0.1114E-01   max: -.7264E-01   D at   38  2
       a =-10.000      CL = -0.3465
      Cm = -0.0082     CD =  0.14678   =>   CDf =  0.00492    CDp =  0.14186

 Side 1 forced transition at x/c =  0.9988   83
 Side 2  free  transition at x/c =  0.1841   38

   5   rms: 0.4565E-02   max: 0.3074E-01   T at   38  2
       a =-10.000      CL = -0.3502
      Cm = -0.0082     CD =  0.14790   =>   CDf =  0.00492    CDp =  0.14298

 Side 1 forced transition at x/c =  0.9988   83
 Side 2  free  transition at x/c =  0.1837   38

   6   rms: 0.2448E-03   max: -.2486E-02   D at  100  2
       a =-10.000      CL = -0.3503
      Cm = -0.0082     CD =  0.14804   =>   CDf =  0.00492    CDp =  0.14312

 Side 1 forced transition at x/c =  0.9988   83
 Side 2  free  transition at x/c =  0.1837   38

   7   rms: 0.6598E-04   max: 0.4895E-03   T at   38  2
       a =-10.000      CL = -0.3503
      Cm = -0.0082     CD =  0.14806   =>   CDf =  0.00492    CDp =  0.14314
 plradd ia,ip,cpol           11          82  3.38528742E-04

 Point added to stored polar  1
 Save file unspecified or not available
 Dump file unspecified or not available

.OPERva   c>  
.OPERva   c>  
.OPERva   c>  
        airfoil                    Re           Mach       Ncrit  XtripT  XtripB     file
       ------------------------  ------------  ----------  -----  ------  ------    -------------------
 >  1  naca pippo                5.000e4       0.000        9.00   1.000   1.000    

Enter polar output filename   s>  
.OPERva   c>  
 ==============================================================
 Polar  1
  
       XFOIL         Version 6.99
  
 Calculated polar for: naca pippo                                      
  
 1 1 Reynolds number fixed          Mach number fixed         
  
 xtrf =   1.000 (top)        1.000 (bottom)  
 Mach =   0.000     Re =     0.050 e 6     Ncrit =   9.000
  
   alpha    CL        CD       CDp       CM     Top_Xtr  Bot_Xtr
  ------ -------- --------- --------- -------- -------- --------
   2.000   0.7332   0.02832   0.01571  -0.0674   0.4423   1.0012
   1.000   0.6187   0.02624   0.01454  -0.0674   0.4709   1.0012
  -1.000   0.3275   0.03353   0.02260  -0.0670   0.7425   0.1432
  -2.000  -0.0307   0.04703   0.03679  -0.0428   0.8856   0.1211
  -3.000  -0.3316   0.06931   0.06513   0.0416   0.9480   0.7509
  -5.000  -0.5286   0.09401   0.08945   0.0223   0.9988   0.3648
  -6.000  -0.5309   0.10658   0.10186   0.0138   0.9988   0.2919
  -7.000  -0.5465   0.12136   0.11649   0.0044   0.9988   0.2465
  -8.000  -0.4938   0.13047   0.12547   0.0004   0.9988   0.2206
  -9.000  -0.3597   0.13850   0.13367  -0.0049   0.9988   0.2056
 -10.000  -0.3503   0.14806   0.14314  -0.0082   0.9988   0.1837

.OPERva   c>  
 XFOIL   c>  